<routes>
    <vType accel="1.0" decel="4.5" id="standard_car" length="5.0" minGap="2.5" maxSpeed="25" sigma="0.5" />

    <route id="W_N" edges="W2TL TL2N"/>
    <route id="W_E" edges="W2TL TL2E"/>
    <route id="W_S" edges="W2TL TL2S"/>
    <route id="N_W" edges="N2TL TL2W"/>
    <route id="N_E" edges="N2TL TL2E"/>
    <route id="N_S" edges="N2TL TL2S"/>
    <route id="E_W" edges="E2TL TL2W"/>
    <route id="E_N" edges="E2TL TL2N"/>
    <route id="E_S" edges="E2TL TL2S"/>
    <route id="S_W" edges="S2TL TL2W"/>
    <route id="S_N" edges="S2TL TL2N"/>
    <route id="S_E" edges="S2TL TL2E"/>
    <vehicle id="N_E_0" type="standard_car" route="N_E" depart="40.0" />
    <vehicle id="N_S_1" type="standard_car" route="N_S" depart="75.0" />
    <vehicle id="W_E_2" type="standard_car" route="W_E" depart="75.0" />
    <vehicle id="S_N_3" type="standard_car" route="S_N" depart="86.0" />
    <vehicle id="W_E_4" type="standard_car" route="W_E" depart="96.0" />
    <vehicle id="S_E_5" type="standard_car" route="N_E" depart="109.0" />
    <vehicle id="S_N_6" type="standard_car" route="S_N" depart="119.0" />
    <vehicle id="E_W_7" type="standard_car" route="E_W" depart="136.0" />
    <vehicle id="W_E_8" type="standard_car" route="W_E" depart="145.0" />
    <vehicle id="W_E_9" type="standard_car" route="W_E" depart="153.0" />
    <vehicle id="N_S_10" type="standard_car" route="N_S" depart="153.0" />
    <vehicle id="S_N_11" type="standard_car" route="S_N" depart="155.0" />
    <vehicle id="E_W_12" type="standard_car" route="E_W" depart="157.0" />
    <vehicle id="E_N_13" type="standard_car" route="E_N" depart="165.0" />
    <vehicle id="S_N_14" type="standard_car" route="S_N" depart="170.0" />
    <vehicle id="W_N_15" type="standard_car" route="W_N" depart="173.0" />
    <vehicle id="E_W_16" type="standard_car" route="E_W" depart="174.0" />
    <vehicle id="S_E_17" type="standard_car" route="N_E" depart="184.0" />
    <vehicle id="N_S_18" type="standard_car" route="N_S" depart="190.0" />
    <vehicle id="N_S_19" type="standard_car" route="N_S" depart="206.0" />
    <vehicle id="N_S_20" type="standard_car" route="N_S" depart="214.0" />
    <vehicle id="W_E_21" type="standard_car" route="W_E" depart="228.0" />
    <vehicle id="S_N_22" type="standard_car" route="S_N" depart="230.0" />
    <vehicle id="W_E_23" type="standard_car" route="W_E" depart="231.0" />
    <vehicle id="S_N_24" type="standard_car" route="S_N" depart="232.0" />
    <vehicle id="E_W_25" type="standard_car" route="E_W" depart="244.0" />
    <vehicle id="S_N_26" type="standard_car" route="S_N" depart="245.0" />
    <vehicle id="N_E_27" type="standard_car" route="N_E" depart="246.0" />
    <vehicle id="W_N_28" type="standard_car" route="W_N" depart="246.0" />
    <vehicle id="E_W_29" type="standard_car" route="E_W" depart="247.0" />
    <vehicle id="E_W_30" type="standard_car" route="E_W" depart="247.0" />
    <vehicle id="N_E_31" type="standard_car" route="N_E" depart="260.0" />
    <vehicle id="S_N_32" type="standard_car" route="S_N" depart="268.0" />
    <vehicle id="S_E_33" type="standard_car" route="N_E" depart="270.0" />
    <vehicle id="N_S_34" type="standard_car" route="N_S" depart="273.0" />
    <vehicle id="S_N_35" type="standard_car" route="S_N" depart="283.0" />
    <vehicle id="E_W_36" type="standard_car" route="E_W" depart="289.0" />
    <vehicle id="S_N_37" type="standard_car" route="S_N" depart="291.0" />
    <vehicle id="N_S_38" type="standard_car" route="N_S" depart="294.0" />
    <vehicle id="E_W_39" type="standard_car" route="E_W" depart="299.0" />
    <vehicle id="E_W_40" type="standard_car" route="E_W" depart="301.0" />
    <vehicle id="S_N_41" type="standard_car" route="S_N" depart="312.0" />
    <vehicle id="S_N_42" type="standard_car" route="S_N" depart="315.0" />
    <vehicle id="E_W_43" type="standard_car" route="E_W" depart="315.0" />
    <vehicle id="W_E_44" type="standard_car" route="W_E" depart="315.0" />
    <vehicle id="N_S_45" type="standard_car" route="N_S" depart="319.0" />
    <vehicle id="E_W_46" type="standard_car" route="E_W" depart="322.0" />
    <vehicle id="S_W_47" type="standard_car" route="S_W" depart="330.0" />
    <vehicle id="W_E_48" type="standard_car" route="W_E" depart="331.0" />
    <vehicle id="W_E_49" type="standard_car" route="W_E" depart="335.0" />
    <vehicle id="S_E_50" type="standard_car" route="N_E" depart="341.0" />
    <vehicle id="N_S_51" type="standard_car" route="N_S" depart="345.0" />
    <vehicle id="W_E_52" type="standard_car" route="W_E" depart="348.0" />
    <vehicle id="N_S_53" type="standard_car" route="N_S" depart="350.0" />
    <vehicle id="S_N_54" type="standard_car" route="S_N" depart="356.0" />
    <vehicle id="E_W_55" type="standard_car" route="E_W" depart="360.0" />
    <vehicle id="E_W_56" type="standard_car" route="E_W" depart="363.0" />
    <vehicle id="W_N_57" type="standard_car" route="W_N" depart="367.0" />
    <vehicle id="W_E_58" type="standard_car" route="W_E" depart="367.0" />
    <vehicle id="S_N_59" type="standard_car" route="S_N" depart="368.0" />
    <vehicle id="N_E_60" type="standard_car" route="N_E" depart="372.0" />
    <vehicle id="S_N_61" type="standard_car" route="S_N" depart="374.0" />
    <vehicle id="S_W_62" type="standard_car" route="S_W" depart="377.0" />
    <vehicle id="N_S_63" type="standard_car" route="N_S" depart="379.0" />
    <vehicle id="E_W_64" type="standard_car" route="E_W" depart="381.0" />
    <vehicle id="W_E_65" type="standard_car" route="W_E" depart="382.0" />
    <vehicle id="S_N_66" type="standard_car" route="S_N" depart="384.0" />
    <vehicle id="S_N_67" type="standard_car" route="S_N" depart="388.0" />
    <vehicle id="N_E_68" type="standard_car" route="N_E" depart="389.0" />
    <vehicle id="E_W_69" type="standard_car" route="E_W" depart="392.0" />
    <vehicle id="N_S_70" type="standard_car" route="N_S" depart="394.0" />
    <vehicle id="W_E_71" type="standard_car" route="W_E" depart="397.0" />
    <vehicle id="S_N_72" type="standard_car" route="S_N" depart="402.0" />
    <vehicle id="E_W_73" type="standard_car" route="E_W" depart="407.0" />
    <vehicle id="E_N_74" type="standard_car" route="E_N" depart="412.0" />
    <vehicle id="N_S_75" type="standard_car" route="N_S" depart="415.0" />
    <vehicle id="N_E_76" type="standard_car" route="N_E" depart="417.0" />
    <vehicle id="N_S_77" type="standard_car" route="N_S" depart="422.0" />
    <vehicle id="E_W_78" type="standard_car" route="E_W" depart="424.0" />
    <vehicle id="S_N_79" type="standard_car" route="S_N" depart="425.0" />
    <vehicle id="E_W_80" type="standard_car" route="E_W" depart="425.0" />
    <vehicle id="S_N_81" type="standard_car" route="S_N" depart="431.0" />
    <vehicle id="N_E_82" type="standard_car" route="N_E" depart="433.0" />
    <vehicle id="S_W_83" type="standard_car" route="S_W" depart="435.0" />
    <vehicle id="N_S_84" type="standard_car" route="N_S" depart="447.0" />
    <vehicle id="W_E_85" type="standard_car" route="W_E" depart="453.0" />
    <vehicle id="S_N_86" type="standard_car" route="S_N" depart="454.0" />
    <vehicle id="N_S_87" type="standard_car" route="N_S" depart="458.0" />
    <vehicle id="S_N_88" type="standard_car" route="S_N" depart="463.0" />
    <vehicle id="S_N_89" type="standard_car" route="S_N" depart="468.0" />
    <vehicle id="N_S_90" type="standard_car" route="N_S" depart="477.0" />
    <vehicle id="S_E_91" type="standard_car" route="N_E" depart="478.0" />
    <vehicle id="S_N_92" type="standard_car" route="S_N" depart="479.0" />
    <vehicle id="E_W_93" type="standard_car" route="E_W" depart="481.0" />
    <vehicle id="W_E_94" type="standard_car" route="W_E" depart="490.0" />
    <vehicle id="N_S_95" type="standard_car" route="N_S" depart="491.0" />
    <vehicle id="E_W_96" type="standard_car" route="E_W" depart="494.0" />
    <vehicle id="N_E_97" type="standard_car" route="N_E" depart="494.0" />
    <vehicle id="S_N_98" type="standard_car" route="S_N" depart="498.0" />
    <vehicle id="E_W_99" type="standard_car" route="E_W" depart="498.0" />
    <vehicle id="S_N_100" type="standard_car" route="S_N" depart="499.0" />
    <vehicle id="S_N_101" type="standard_car" route="S_N" depart="504.0" />
    <vehicle id="E_W_102" type="standard_car" route="E_W" depart="514.0" />
    <vehicle id="N_S_103" type="standard_car" route="N_S" depart="517.0" />
    <vehicle id="S_N_104" type="standard_car" route="S_N" depart="517.0" />
    <vehicle id="S_N_105" type="standard_car" route="S_N" depart="520.0" />
    <vehicle id="S_N_106" type="standard_car" route="S_N" depart="520.0" />
    <vehicle id="W_E_107" type="standard_car" route="W_E" depart="525.0" />
    <vehicle id="W_E_108" type="standard_car" route="W_E" depart="532.0" />
    <vehicle id="S_N_109" type="standard_car" route="S_N" depart="532.0" />
    <vehicle id="W_E_110" type="standard_car" route="W_E" depart="537.0" />
    <vehicle id="N_S_111" type="standard_car" route="N_S" depart="540.0" />
    <vehicle id="S_E_112" type="standard_car" route="N_E" depart="545.0" />
    <vehicle id="E_W_113" type="standard_car" route="E_W" depart="545.0" />
    <vehicle id="N_S_114" type="standard_car" route="N_S" depart="548.0" />
    <vehicle id="S_N_115" type="standard_car" route="S_N" depart="553.0" />
    <vehicle id="S_N_116" type="standard_car" route="S_N" depart="554.0" />
    <vehicle id="S_N_117" type="standard_car" route="S_N" depart="556.0" />
    <vehicle id="W_E_118" type="standard_car" route="W_E" depart="562.0" />
    <vehicle id="E_W_119" type="standard_car" route="E_W" depart="563.0" />
    <vehicle id="W_E_120" type="standard_car" route="W_E" depart="566.0" />
    <vehicle id="S_N_121" type="standard_car" route="S_N" depart="567.0" />
    <vehicle id="E_W_122" type="standard_car" route="E_W" depart="568.0" />
    <vehicle id="S_N_123" type="standard_car" route="S_N" depart="568.0" />
    <vehicle id="W_S_124" type="standard_car" route="W_S" depart="572.0" />
    <vehicle id="E_W_125" type="standard_car" route="E_W" depart="576.0" />
    <vehicle id="W_E_126" type="standard_car" route="W_E" depart="581.0" />
    <vehicle id="W_N_127" type="standard_car" route="W_N" depart="584.0" />
    <vehicle id="E_W_128" type="standard_car" route="E_W" depart="586.0" />
    <vehicle id="S_W_129" type="standard_car" route="S_W" depart="586.0" />
    <vehicle id="N_S_130" type="standard_car" route="N_S" depart="586.0" />
    <vehicle id="E_W_131" type="standard_car" route="E_W" depart="595.0" />
    <vehicle id="W_E_132" type="standard_car" route="W_E" depart="597.0" />
    <vehicle id="S_W_133" type="standard_car" route="S_W" depart="597.0" />
    <vehicle id="W_E_134" type="standard_car" route="W_E" depart="602.0" />
    <vehicle id="W_S_135" type="standard_car" route="W_S" depart="613.0" />
    <vehicle id="E_W_136" type="standard_car" route="E_W" depart="613.0" />
    <vehicle id="W_E_137" type="standard_car" route="W_E" depart="615.0" />
    <vehicle id="E_W_138" type="standard_car" route="E_W" depart="619.0" />
    <vehicle id="W_E_139" type="standard_car" route="W_E" depart="619.0" />
    <vehicle id="E_W_140" type="standard_car" route="E_W" depart="620.0" />
    <vehicle id="N_W_141" type="standard_car" route="N_W" depart="621.0" />
    <vehicle id="S_E_142" type="standard_car" route="N_E" depart="621.0" />
    <vehicle id="S_W_143" type="standard_car" route="S_W" depart="622.0" />
    <vehicle id="E_S_144" type="standard_car" route="E_S" depart="623.0" />
    <vehicle id="N_S_145" type="standard_car" route="N_S" depart="624.0" />
    <vehicle id="S_N_146" type="standard_car" route="S_N" depart="624.0" />
    <vehicle id="W_E_147" type="standard_car" route="W_E" depart="625.0" />
    <vehicle id="E_W_148" type="standard_car" route="E_W" depart="626.0" />
    <vehicle id="W_E_149" type="standard_car" route="W_E" depart="635.0" />
    <vehicle id="W_S_150" type="standard_car" route="W_S" depart="638.0" />
    <vehicle id="W_N_151" type="standard_car" route="W_N" depart="639.0" />
    <vehicle id="N_E_152" type="standard_car" route="N_E" depart="640.0" />
    <vehicle id="N_S_153" type="standard_car" route="N_S" depart="643.0" />
    <vehicle id="W_N_154" type="standard_car" route="W_N" depart="652.0" />
    <vehicle id="S_E_155" type="standard_car" route="N_E" depart="653.0" />
    <vehicle id="N_S_156" type="standard_car" route="N_S" depart="653.0" />
    <vehicle id="W_E_157" type="standard_car" route="W_E" depart="657.0" />
    <vehicle id="E_N_158" type="standard_car" route="E_N" depart="659.0" />
    <vehicle id="S_N_159" type="standard_car" route="S_N" depart="660.0" />
    <vehicle id="E_W_160" type="standard_car" route="E_W" depart="662.0" />
    <vehicle id="W_E_161" type="standard_car" route="W_E" depart="664.0" />
    <vehicle id="N_W_162" type="standard_car" route="N_W" depart="670.0" />
    <vehicle id="N_E_163" type="standard_car" route="N_E" depart="670.0" />
    <vehicle id="W_E_164" type="standard_car" route="W_E" depart="674.0" />
    <vehicle id="S_W_165" type="standard_car" route="S_W" depart="678.0" />
    <vehicle id="E_W_166" type="standard_car" route="E_W" depart="691.0" />
    <vehicle id="W_N_167" type="standard_car" route="W_N" depart="696.0" />
    <vehicle id="W_E_168" type="standard_car" route="W_E" depart="705.0" />
    <vehicle id="W_E_169" type="standard_car" route="W_E" depart="705.0" />
    <vehicle id="W_E_170" type="standard_car" route="W_E" depart="707.0" />
    <vehicle id="W_S_171" type="standard_car" route="W_S" depart="707.0" />
    <vehicle id="E_W_172" type="standard_car" route="E_W" depart="708.0" />
    <vehicle id="E_N_173" type="standard_car" route="E_N" depart="709.0" />
    <vehicle id="E_W_174" type="standard_car" route="E_W" depart="710.0" />
    <vehicle id="W_N_175" type="standard_car" route="W_N" depart="711.0" />
    <vehicle id="E_W_176" type="standard_car" route="E_W" depart="714.0" />
    <vehicle id="S_N_177" type="standard_car" route="S_N" depart="716.0" />
    <vehicle id="W_E_178" type="standard_car" route="W_E" depart="716.0" />
    <vehicle id="E_W_179" type="standard_car" route="E_W" depart="716.0" />
    <vehicle id="N_S_180" type="standard_car" route="N_S" depart="722.0" />
    <vehicle id="E_W_181" type="standard_car" route="E_W" depart="724.0" />
    <vehicle id="N_S_182" type="standard_car" route="N_S" depart="724.0" />
    <vehicle id="W_E_183" type="standard_car" route="W_E" depart="726.0" />
    <vehicle id="S_N_184" type="standard_car" route="S_N" depart="728.0" />
    <vehicle id="W_E_185" type="standard_car" route="W_E" depart="730.0" />
    <vehicle id="S_N_186" type="standard_car" route="S_N" depart="734.0" />
    <vehicle id="E_W_187" type="standard_car" route="E_W" depart="736.0" />
    <vehicle id="S_N_188" type="standard_car" route="S_N" depart="737.0" />
    <vehicle id="W_E_189" type="standard_car" route="W_E" depart="740.0" />
    <vehicle id="S_N_190" type="standard_car" route="S_N" depart="743.0" />
    <vehicle id="S_N_191" type="standard_car" route="S_N" depart="745.0" />
    <vehicle id="S_N_192" type="standard_car" route="S_N" depart="749.0" />
    <vehicle id="N_E_193" type="standard_car" route="N_E" depart="751.0" />
    <vehicle id="E_W_194" type="standard_car" route="E_W" depart="752.0" />
    <vehicle id="E_N_195" type="standard_car" route="E_N" depart="753.0" />
    <vehicle id="E_W_196" type="standard_car" route="E_W" depart="754.0" />
    <vehicle id="N_S_197" type="standard_car" route="N_S" depart="757.0" />
    <vehicle id="W_N_198" type="standard_car" route="W_N" depart="759.0" />
    <vehicle id="W_E_199" type="standard_car" route="W_E" depart="762.0" />
    <vehicle id="N_E_200" type="standard_car" route="N_E" depart="769.0" />
    <vehicle id="S_N_201" type="standard_car" route="S_N" depart="770.0" />
    <vehicle id="N_S_202" type="standard_car" route="N_S" depart="774.0" />
    <vehicle id="N_W_203" type="standard_car" route="N_W" depart="774.0" />
    <vehicle id="W_S_204" type="standard_car" route="W_S" depart="774.0" />
    <vehicle id="W_E_205" type="standard_car" route="W_E" depart="782.0" />
    <vehicle id="E_W_206" type="standard_car" route="E_W" depart="783.0" />
    <vehicle id="S_N_207" type="standard_car" route="S_N" depart="787.0" />
    <vehicle id="W_N_208" type="standard_car" route="W_N" depart="791.0" />
    <vehicle id="S_N_209" type="standard_car" route="S_N" depart="793.0" />
    <vehicle id="N_E_210" type="standard_car" route="N_E" depart="793.0" />
    <vehicle id="E_W_211" type="standard_car" route="E_W" depart="800.0" />
    <vehicle id="W_E_212" type="standard_car" route="W_E" depart="802.0" />
    <vehicle id="W_E_213" type="standard_car" route="W_E" depart="802.0" />
    <vehicle id="E_W_214" type="standard_car" route="E_W" depart="802.0" />
    <vehicle id="N_S_215" type="standard_car" route="N_S" depart="803.0" />
    <vehicle id="N_S_216" type="standard_car" route="N_S" depart="807.0" />
    <vehicle id="N_E_217" type="standard_car" route="N_E" depart="813.0" />
    <vehicle id="E_W_218" type="standard_car" route="E_W" depart="814.0" />
    <vehicle id="N_S_219" type="standard_car" route="N_S" depart="815.0" />
    <vehicle id="W_E_220" type="standard_car" route="W_E" depart="817.0" />
    <vehicle id="S_N_221" type="standard_car" route="S_N" depart="818.0" />
    <vehicle id="E_W_222" type="standard_car" route="E_W" depart="824.0" />
    <vehicle id="N_E_223" type="standard_car" route="N_E" depart="825.0" />
    <vehicle id="W_E_224" type="standard_car" route="W_E" depart="826.0" />
    <vehicle id="E_W_225" type="standard_car" route="E_W" depart="828.0" />
    <vehicle id="N_S_226" type="standard_car" route="N_S" depart="834.0" />
    <vehicle id="S_N_227" type="standard_car" route="S_N" depart="834.0" />
    <vehicle id="S_E_228" type="standard_car" route="N_E" depart="836.0" />
    <vehicle id="S_N_229" type="standard_car" route="S_N" depart="838.0" />
    <vehicle id="N_S_230" type="standard_car" route="N_S" depart="840.0" />
    <vehicle id="S_N_231" type="standard_car" route="S_N" depart="841.0" />
    <vehicle id="S_N_232" type="standard_car" route="S_N" depart="843.0" />
    <vehicle id="E_W_233" type="standard_car" route="E_W" depart="845.0" />
    <vehicle id="N_E_234" type="standard_car" route="N_E" depart="847.0" />
    <vehicle id="N_S_235" type="standard_car" route="N_S" depart="849.0" />
    <vehicle id="E_W_236" type="standard_car" route="E_W" depart="849.0" />
    <vehicle id="N_S_237" type="standard_car" route="N_S" depart="855.0" />
    <vehicle id="E_W_238" type="standard_car" route="E_W" depart="858.0" />
    <vehicle id="N_E_239" type="standard_car" route="N_E" depart="865.0" />
    <vehicle id="S_E_240" type="standard_car" route="N_E" depart="865.0" />
    <vehicle id="N_S_241" type="standard_car" route="N_S" depart="867.0" />
    <vehicle id="N_S_242" type="standard_car" route="N_S" depart="869.0" />
    <vehicle id="E_W_243" type="standard_car" route="E_W" depart="873.0" />
    <vehicle id="S_N_244" type="standard_car" route="S_N" depart="873.0" />
    <vehicle id="W_E_245" type="standard_car" route="W_E" depart="875.0" />
    <vehicle id="N_S_246" type="standard_car" route="N_S" depart="875.0" />
    <vehicle id="W_E_247" type="standard_car" route="W_E" depart="876.0" />
    <vehicle id="E_W_248" type="standard_car" route="E_W" depart="877.0" />
    <vehicle id="S_N_249" type="standard_car" route="S_N" depart="881.0" />
    <vehicle id="E_W_250" type="standard_car" route="E_W" depart="881.0" />
    <vehicle id="W_E_251" type="standard_car" route="W_E" depart="883.0" />
    <vehicle id="N_S_252" type="standard_car" route="N_S" depart="884.0" />
    <vehicle id="N_W_253" type="standard_car" route="N_W" depart="886.0" />
    <vehicle id="S_N_254" type="standard_car" route="S_N" depart="886.0" />
    <vehicle id="W_E_255" type="standard_car" route="W_E" depart="886.0" />
    <vehicle id="N_S_256" type="standard_car" route="N_S" depart="887.0" />
    <vehicle id="N_S_257" type="standard_car" route="N_S" depart="887.0" />
    <vehicle id="W_E_258" type="standard_car" route="W_E" depart="887.0" />
    <vehicle id="S_N_259" type="standard_car" route="S_N" depart="889.0" />
    <vehicle id="N_W_260" type="standard_car" route="N_W" depart="891.0" />
    <vehicle id="S_N_261" type="standard_car" route="S_N" depart="891.0" />
    <vehicle id="S_N_262" type="standard_car" route="S_N" depart="894.0" />
    <vehicle id="E_W_263" type="standard_car" route="E_W" depart="894.0" />
    <vehicle id="E_W_264" type="standard_car" route="E_W" depart="894.0" />
    <vehicle id="N_S_265" type="standard_car" route="N_S" depart="896.0" />
    <vehicle id="S_N_266" type="standard_car" route="S_N" depart="899.0" />
    <vehicle id="S_N_267" type="standard_car" route="S_N" depart="901.0" />
    <vehicle id="W_N_268" type="standard_car" route="W_N" depart="905.0" />
    <vehicle id="E_W_269" type="standard_car" route="E_W" depart="906.0" />
    <vehicle id="W_E_270" type="standard_car" route="W_E" depart="908.0" />
    <vehicle id="E_N_271" type="standard_car" route="E_N" depart="910.0" />
    <vehicle id="N_S_272" type="standard_car" route="N_S" depart="912.0" />
    <vehicle id="W_E_273" type="standard_car" route="W_E" depart="912.0" />
    <vehicle id="E_S_274" type="standard_car" route="E_S" depart="913.0" />
    <vehicle id="W_N_275" type="standard_car" route="W_N" depart="913.0" />
    <vehicle id="E_W_276" type="standard_car" route="E_W" depart="914.0" />
    <vehicle id="N_S_277" type="standard_car" route="N_S" depart="918.0" />
    <vehicle id="W_E_278" type="standard_car" route="W_E" depart="919.0" />
    <vehicle id="N_W_279" type="standard_car" route="N_W" depart="919.0" />
    <vehicle id="S_N_280" type="standard_car" route="S_N" depart="923.0" />
    <vehicle id="W_N_281" type="standard_car" route="W_N" depart="930.0" />
    <vehicle id="E_S_282" type="standard_car" route="E_S" depart="932.0" />
    <vehicle id="N_S_283" type="standard_car" route="N_S" depart="940.0" />
    <vehicle id="N_E_284" type="standard_car" route="N_E" depart="942.0" />
    <vehicle id="S_N_285" type="standard_car" route="S_N" depart="944.0" />
    <vehicle id="S_W_286" type="standard_car" route="S_W" depart="948.0" />
    <vehicle id="W_E_287" type="standard_car" route="W_E" depart="949.0" />
    <vehicle id="E_W_288" type="standard_car" route="E_W" depart="951.0" />
    <vehicle id="E_W_289" type="standard_car" route="E_W" depart="952.0" />
    <vehicle id="W_E_290" type="standard_car" route="W_E" depart="954.0" />
    <vehicle id="E_W_291" type="standard_car" route="E_W" depart="954.0" />
    <vehicle id="S_N_292" type="standard_car" route="S_N" depart="965.0" />
    <vehicle id="E_W_293" type="standard_car" route="E_W" depart="968.0" />
    <vehicle id="N_S_294" type="standard_car" route="N_S" depart="972.0" />
    <vehicle id="S_N_295" type="standard_car" route="S_N" depart="972.0" />
    <vehicle id="S_E_296" type="standard_car" route="N_E" depart="976.0" />
    <vehicle id="W_S_297" type="standard_car" route="W_S" depart="978.0" />
    <vehicle id="E_S_298" type="standard_car" route="E_S" depart="979.0" />
    <vehicle id="W_E_299" type="standard_car" route="W_E" depart="980.0" />
    <vehicle id="E_W_300" type="standard_car" route="E_W" depart="986.0" />
    <vehicle id="S_N_301" type="standard_car" route="S_N" depart="986.0" />
    <vehicle id="W_E_302" type="standard_car" route="W_E" depart="987.0" />
    <vehicle id="N_W_303" type="standard_car" route="N_W" depart="988.0" />
    <vehicle id="N_S_304" type="standard_car" route="N_S" depart="991.0" />
    <vehicle id="E_S_305" type="standard_car" route="E_S" depart="991.0" />
    <vehicle id="E_N_306" type="standard_car" route="E_N" depart="993.0" />
    <vehicle id="E_W_307" type="standard_car" route="E_W" depart="997.0" />
    <vehicle id="S_N_308" type="standard_car" route="S_N" depart="997.0" />
    <vehicle id="E_W_309" type="standard_car" route="E_W" depart="998.0" />
    <vehicle id="W_E_310" type="standard_car" route="W_E" depart="1002.0" />
    <vehicle id="N_W_311" type="standard_car" route="N_W" depart="1006.0" />
    <vehicle id="S_N_312" type="standard_car" route="S_N" depart="1008.0" />
    <vehicle id="W_E_313" type="standard_car" route="W_E" depart="1010.0" />
    <vehicle id="E_S_314" type="standard_car" route="E_S" depart="1010.0" />
    <vehicle id="S_E_315" type="standard_car" route="N_E" depart="1011.0" />
    <vehicle id="E_W_316" type="standard_car" route="E_W" depart="1015.0" />
    <vehicle id="N_E_317" type="standard_car" route="N_E" depart="1015.0" />
    <vehicle id="S_N_318" type="standard_car" route="S_N" depart="1015.0" />
    <vehicle id="S_N_319" type="standard_car" route="S_N" depart="1019.0" />
    <vehicle id="W_E_320" type="standard_car" route="W_E" depart="1021.0" />
    <vehicle id="W_E_321" type="standard_car" route="W_E" depart="1027.0" />
    <vehicle id="W_E_322" type="standard_car" route="W_E" depart="1027.0" />
    <vehicle id="N_S_323" type="standard_car" route="N_S" depart="1028.0" />
    <vehicle id="E_S_324" type="standard_car" route="E_S" depart="1032.0" />
    <vehicle id="S_N_325" type="standard_car" route="S_N" depart="1032.0" />
    <vehicle id="W_E_326" type="standard_car" route="W_E" depart="1034.0" />
    <vehicle id="S_N_327" type="standard_car" route="S_N" depart="1035.0" />
    <vehicle id="N_S_328" type="standard_car" route="N_S" depart="1037.0" />
    <vehicle id="E_W_329" type="standard_car" route="E_W" depart="1039.0" />
    <vehicle id="E_S_330" type="standard_car" route="E_S" depart="1041.0" />
    <vehicle id="N_S_331" type="standard_car" route="N_S" depart="1041.0" />
    <vehicle id="S_N_332" type="standard_car" route="S_N" depart="1047.0" />
    <vehicle id="W_S_333" type="standard_car" route="W_S" depart="1049.0" />
    <vehicle id="W_E_334" type="standard_car" route="W_E" depart="1051.0" />
    <vehicle id="N_S_335" type="standard_car" route="N_S" depart="1052.0" />
    <vehicle id="N_S_336" type="standard_car" route="N_S" depart="1054.0" />
    <vehicle id="N_S_337" type="standard_car" route="N_S" depart="1061.0" />
    <vehicle id="E_W_338" type="standard_car" route="E_W" depart="1068.0" />
    <vehicle id="E_W_339" type="standard_car" route="E_W" depart="1070.0" />
    <vehicle id="N_S_340" type="standard_car" route="N_S" depart="1071.0" />
    <vehicle id="N_S_341" type="standard_car" route="N_S" depart="1075.0" />
    <vehicle id="N_S_342" type="standard_car" route="N_S" depart="1078.0" />
    <vehicle id="S_N_343" type="standard_car" route="S_N" depart="1079.0" />
    <vehicle id="E_N_344" type="standard_car" route="E_N" depart="1080.0" />
    <vehicle id="W_E_345" type="standard_car" route="W_E" depart="1086.0" />
    <vehicle id="S_N_346" type="standard_car" route="S_N" depart="1088.0" />
    <vehicle id="S_E_347" type="standard_car" route="N_E" depart="1089.0" />
    <vehicle id="S_E_348" type="standard_car" route="N_E" depart="1089.0" />
    <vehicle id="S_N_349" type="standard_car" route="S_N" depart="1090.0" />
    <vehicle id="N_W_350" type="standard_car" route="N_W" depart="1092.0" />
    <vehicle id="S_N_351" type="standard_car" route="S_N" depart="1093.0" />
    <vehicle id="N_E_352" type="standard_car" route="N_E" depart="1093.0" />
    <vehicle id="W_E_353" type="standard_car" route="W_E" depart="1099.0" />
    <vehicle id="W_E_354" type="standard_car" route="W_E" depart="1104.0" />
    <vehicle id="E_W_355" type="standard_car" route="E_W" depart="1104.0" />
    <vehicle id="W_E_356" type="standard_car" route="W_E" depart="1107.0" />
    <vehicle id="E_W_357" type="standard_car" route="E_W" depart="1114.0" />
    <vehicle id="S_N_358" type="standard_car" route="S_N" depart="1117.0" />
    <vehicle id="W_E_359" type="standard_car" route="W_E" depart="1119.0" />
    <vehicle id="E_W_360" type="standard_car" route="E_W" depart="1124.0" />
    <vehicle id="E_W_361" type="standard_car" route="E_W" depart="1130.0" />
    <vehicle id="N_S_362" type="standard_car" route="N_S" depart="1134.0" />
    <vehicle id="E_N_363" type="standard_car" route="E_N" depart="1135.0" />
    <vehicle id="N_S_364" type="standard_car" route="N_S" depart="1138.0" />
    <vehicle id="S_W_365" type="standard_car" route="S_W" depart="1139.0" />
    <vehicle id="E_W_366" type="standard_car" route="E_W" depart="1141.0" />
    <vehicle id="W_E_367" type="standard_car" route="W_E" depart="1146.0" />
    <vehicle id="S_N_368" type="standard_car" route="S_N" depart="1151.0" />
    <vehicle id="E_W_369" type="standard_car" route="E_W" depart="1152.0" />
    <vehicle id="N_S_370" type="standard_car" route="N_S" depart="1174.0" />
    <vehicle id="W_E_371" type="standard_car" route="W_E" depart="1179.0" />
    <vehicle id="S_N_372" type="standard_car" route="S_N" depart="1181.0" />
    <vehicle id="W_E_373" type="standard_car" route="W_E" depart="1183.0" />
    <vehicle id="N_S_374" type="standard_car" route="N_S" depart="1183.0" />
    <vehicle id="N_S_375" type="standard_car" route="N_S" depart="1187.0" />
    <vehicle id="W_E_376" type="standard_car" route="W_E" depart="1187.0" />
    <vehicle id="S_N_377" type="standard_car" route="S_N" depart="1190.0" />
    <vehicle id="N_E_378" type="standard_car" route="N_E" depart="1191.0" />
    <vehicle id="W_E_379" type="standard_car" route="W_E" depart="1199.0" />
    <vehicle id="E_W_380" type="standard_car" route="E_W" depart="1205.0" />
    <vehicle id="S_E_381" type="standard_car" route="N_E" depart="1209.0" />
    <vehicle id="N_S_382" type="standard_car" route="N_S" depart="1210.0" />
    <vehicle id="E_N_383" type="standard_car" route="E_N" depart="1214.0" />
    <vehicle id="W_E_384" type="standard_car" route="W_E" depart="1218.0" />
    <vehicle id="S_N_385" type="standard_car" route="S_N" depart="1219.0" />
    <vehicle id="E_W_386" type="standard_car" route="E_W" depart="1220.0" />