<routes>
    <vType accel="1.0" decel="4.5" id="standard_car" length="5.0" minGap="2.5" maxSpeed="25" sigma="0.5" />

    <route id="W_N" edges="W2TL TL2N"/>
    <route id="W_E" edges="W2TL TL2E"/>
    <route id="W_S" edges="W2TL TL2S"/>
    <route id="N_W" edges="N2TL TL2W"/>
    <route id="N_E" edges="N2TL TL2E"/>
    <route id="N_S" edges="N2TL TL2S"/>
    <route id="E_W" edges="E2TL TL2W"/>
    <route id="E_N" edges="E2TL TL2N"/>
    <route id="E_S" edges="E2TL TL2S"/>
    <route id="S_W" edges="S2TL TL2W"/>
    <route id="S_N" edges="S2TL TL2N"/>
    <route id="S_E" edges="S2TL TL2E"/>    <vehicle id="S_E_0" type="standard_car" route="N_E" depart="5.0" />    <vehicle id="E_N_1" type="standard_car" route="E_N" depart="81.0" />    <vehicle id="S_N_2" type="standard_car" route="S_N" depart="97.0" />    <vehicle id="W_E_3" type="standard_car" route="W_E" depart="99.0" />    <vehicle id="N_S_4" type="standard_car" route="N_S" depart="99.0" />    <vehicle id="W_N_5" type="standard_car" route="W_N" depart="143.0" />    <vehicle id="S_N_6" type="standard_car" route="S_N" depart="146.0" />    <vehicle id="S_N_7" type="standard_car" route="S_N" depart="148.0" />    <vehicle id="E_W_8" type="standard_car" route="E_W" depart="150.0" />    <vehicle id="S_E_9" type="standard_car" route="N_E" depart="151.0" />    <vehicle id="N_S_10" type="standard_car" route="N_S" depart="186.0" />    <vehicle id="S_W_11" type="standard_car" route="S_W" depart="203.0" />    <vehicle id="S_E_12" type="standard_car" route="N_E" depart="204.0" />    <vehicle id="W_E_13" type="standard_car" route="W_E" depart="214.0" />    <vehicle id="E_W_14" type="standard_car" route="E_W" depart="217.0" />    <vehicle id="E_S_15" type="standard_car" route="E_S" depart="232.0" />    <vehicle id="W_E_16" type="standard_car" route="W_E" depart="237.0" />    <vehicle id="S_N_17" type="standard_car" route="S_N" depart="241.0" />    <vehicle id="N_E_18" type="standard_car" route="N_E" depart="243.0" />    <vehicle id="N_E_19" type="standard_car" route="N_E" depart="248.0" />    <vehicle id="W_E_20" type="standard_car" route="W_E" depart="248.0" />    <vehicle id="N_E_21" type="standard_car" route="N_E" depart="249.0" />    <vehicle id="S_N_22" type="standard_car" route="S_N" depart="262.0" />    <vehicle id="E_W_23" type="standard_car" route="E_W" depart="266.0" />    <vehicle id="N_S_24" type="standard_car" route="N_S" depart="269.0" />    <vehicle id="S_N_25" type="standard_car" route="S_N" depart="275.0" />    <vehicle id="N_S_26" type="standard_car" route="N_S" depart="276.0" />    <vehicle id="N_S_27" type="standard_car" route="N_S" depart="285.0" />    <vehicle id="W_E_28" type="standard_car" route="W_E" depart="295.0" />    <vehicle id="S_N_29" type="standard_car" route="S_N" depart="295.0" />    <vehicle id="S_W_30" type="standard_car" route="S_W" depart="313.0" />    <vehicle id="S_N_31" type="standard_car" route="S_N" depart="314.0" />    <vehicle id="N_S_32" type="standard_car" route="N_S" depart="315.0" />    <vehicle id="S_N_33" type="standard_car" route="S_N" depart="335.0" />    <vehicle id="N_W_34" type="standard_car" route="N_W" depart="339.0" />    <vehicle id="E_W_35" type="standard_car" route="E_W" depart="339.0" />    <vehicle id="E_W_36" type="standard_car" route="E_W" depart="341.0" />    <vehicle id="S_N_37" type="standard_car" route="S_N" depart="344.0" />    <vehicle id="E_W_38" type="standard_car" route="E_W" depart="344.0" />    <vehicle id="N_S_39" type="standard_car" route="N_S" depart="354.0" />    <vehicle id="N_W_40" type="standard_car" route="N_W" depart="355.0" />    <vehicle id="N_E_41" type="standard_car" route="N_E" depart="361.0" />    <vehicle id="S_N_42" type="standard_car" route="S_N" depart="365.0" />    <vehicle id="S_N_43" type="standard_car" route="S_N" depart="367.0" />    <vehicle id="N_S_44" type="standard_car" route="N_S" depart="374.0" />    <vehicle id="S_N_45" type="standard_car" route="S_N" depart="376.0" />    <vehicle id="W_E_46" type="standard_car" route="W_E" depart="380.0" />    <vehicle id="E_N_47" type="standard_car" route="E_N" depart="383.0" />    <vehicle id="S_N_48" type="standard_car" route="S_N" depart="384.0" />    <vehicle id="N_E_49" type="standard_car" route="N_E" depart="387.0" />    <vehicle id="E_W_50" type="standard_car" route="E_W" depart="388.0" />    <vehicle id="W_N_51" type="standard_car" route="W_N" depart="390.0" />    <vehicle id="W_E_52" type="standard_car" route="W_E" depart="392.0" />    <vehicle id="N_S_53" type="standard_car" route="N_S" depart="392.0" />    <vehicle id="S_N_54" type="standard_car" route="S_N" depart="397.0" />    <vehicle id="W_S_55" type="standard_car" route="W_S" depart="398.0" />    <vehicle id="E_W_56" type="standard_car" route="E_W" depart="398.0" />    <vehicle id="W_E_57" type="standard_car" route="W_E" depart="401.0" />    <vehicle id="E_W_58" type="standard_car" route="E_W" depart="401.0" />    <vehicle id="N_S_59" type="standard_car" route="N_S" depart="403.0" />    <vehicle id="S_N_60" type="standard_car" route="S_N" depart="404.0" />    <vehicle id="S_E_61" type="standard_car" route="N_E" depart="410.0" />    <vehicle id="S_W_62" type="standard_car" route="S_W" depart="410.0" />    <vehicle id="E_N_63" type="standard_car" route="E_N" depart="413.0" />    <vehicle id="S_N_64" type="standard_car" route="S_N" depart="415.0" />    <vehicle id="S_N_65" type="standard_car" route="S_N" depart="418.0" />    <vehicle id="E_S_66" type="standard_car" route="E_S" depart="421.0" />    <vehicle id="W_E_67" type="standard_car" route="W_E" depart="427.0" />    <vehicle id="N_S_68" type="standard_car" route="N_S" depart="428.0" />    <vehicle id="S_N_69" type="standard_car" route="S_N" depart="432.0" />    <vehicle id="S_N_70" type="standard_car" route="S_N" depart="438.0" />    <vehicle id="S_N_71" type="standard_car" route="S_N" depart="439.0" />    <vehicle id="W_N_72" type="standard_car" route="W_N" depart="442.0" />    <vehicle id="N_S_73" type="standard_car" route="N_S" depart="443.0" />    <vehicle id="W_E_74" type="standard_car" route="W_E" depart="444.0" />    <vehicle id="E_W_75" type="standard_car" route="E_W" depart="454.0" />    <vehicle id="E_S_76" type="standard_car" route="E_S" depart="454.0" />    <vehicle id="N_S_77" type="standard_car" route="N_S" depart="456.0" />    <vehicle id="W_E_78" type="standard_car" route="W_E" depart="457.0" />    <vehicle id="S_N_79" type="standard_car" route="S_N" depart="458.0" />    <vehicle id="W_N_80" type="standard_car" route="W_N" depart="464.0" />    <vehicle id="E_W_81" type="standard_car" route="E_W" depart="471.0" />    <vehicle id="N_S_82" type="standard_car" route="N_S" depart="473.0" />    <vehicle id="S_W_83" type="standard_car" route="S_W" depart="477.0" />    <vehicle id="W_N_84" type="standard_car" route="W_N" depart="478.0" />    <vehicle id="E_W_85" type="standard_car" route="E_W" depart="478.0" />    <vehicle id="N_E_86" type="standard_car" route="N_E" depart="487.0" />    <vehicle id="E_W_87" type="standard_car" route="E_W" depart="488.0" />    <vehicle id="S_E_88" type="standard_car" route="N_E" depart="489.0" />    <vehicle id="S_N_89" type="standard_car" route="S_N" depart="490.0" />    <vehicle id="E_W_90" type="standard_car" route="E_W" depart="490.0" />    <vehicle id="S_E_91" type="standard_car" route="N_E" depart="491.0" />    <vehicle id="W_E_92" type="standard_car" route="W_E" depart="492.0" />    <vehicle id="S_W_93" type="standard_car" route="S_W" depart="499.0" />    <vehicle id="E_W_94" type="standard_car" route="E_W" depart="500.0" />    <vehicle id="S_N_95" type="standard_car" route="S_N" depart="501.0" />    <vehicle id="E_W_96" type="standard_car" route="E_W" depart="504.0" />    <vehicle id="W_N_97" type="standard_car" route="W_N" depart="505.0" />    <vehicle id="N_S_98" type="standard_car" route="N_S" depart="507.0" />    <vehicle id="W_E_99" type="standard_car" route="W_E" depart="509.0" />    <vehicle id="E_W_100" type="standard_car" route="E_W" depart="510.0" />    <vehicle id="S_N_101" type="standard_car" route="S_N" depart="511.0" />    <vehicle id="W_E_102" type="standard_car" route="W_E" depart="514.0" />    <vehicle id="W_E_103" type="standard_car" route="W_E" depart="515.0" />    <vehicle id="E_N_104" type="standard_car" route="E_N" depart="525.0" />    <vehicle id="N_S_105" type="standard_car" route="N_S" depart="527.0" />    <vehicle id="S_N_106" type="standard_car" route="S_N" depart="528.0" />    <vehicle id="S_N_107" type="standard_car" route="S_N" depart="535.0" />    <vehicle id="E_W_108" type="standard_car" route="E_W" depart="543.0" />    <vehicle id="N_E_109" type="standard_car" route="N_E" depart="546.0" />    <vehicle id="S_N_110" type="standard_car" route="S_N" depart="551.0" />    <vehicle id="N_S_111" type="standard_car" route="N_S" depart="552.0" />    <vehicle id="S_N_112" type="standard_car" route="S_N" depart="555.0" />    <vehicle id="N_S_113" type="standard_car" route="N_S" depart="556.0" />    <vehicle id="S_N_114" type="standard_car" route="S_N" depart="560.0" />    <vehicle id="N_S_115" type="standard_car" route="N_S" depart="564.0" />    <vehicle id="S_N_116" type="standard_car" route="S_N" depart="566.0" />    <vehicle id="W_E_117" type="standard_car" route="W_E" depart="568.0" />    <vehicle id="S_N_118" type="standard_car" route="S_N" depart="573.0" />    <vehicle id="E_W_119" type="standard_car" route="E_W" depart="574.0" />    <vehicle id="E_S_120" type="standard_car" route="E_S" depart="575.0" />    <vehicle id="S_N_121" type="standard_car" route="S_N" depart="575.0" />    <vehicle id="S_W_122" type="standard_car" route="S_W" depart="579.0" />    <vehicle id="E_W_123" type="standard_car" route="E_W" depart="585.0" />    <vehicle id="N_W_124" type="standard_car" route="N_W" depart="586.0" />    <vehicle id="S_N_125" type="standard_car" route="S_N" depart="586.0" />    <vehicle id="N_S_126" type="standard_car" route="N_S" depart="596.0" />    <vehicle id="W_E_127" type="standard_car" route="W_E" depart="596.0" />    <vehicle id="E_W_128" type="standard_car" route="E_W" depart="601.0" />    <vehicle id="E_W_129" type="standard_car" route="E_W" depart="601.0" />    <vehicle id="S_N_130" type="standard_car" route="S_N" depart="601.0" />    <vehicle id="E_W_131" type="standard_car" route="E_W" depart="601.0" />    <vehicle id="S_N_132" type="standard_car" route="S_N" depart="603.0" />    <vehicle id="W_N_133" type="standard_car" route="W_N" depart="613.0" />    <vehicle id="E_W_134" type="standard_car" route="E_W" depart="614.0" />    <vehicle id="E_W_135" type="standard_car" route="E_W" depart="615.0" />    <vehicle id="W_E_136" type="standard_car" route="W_E" depart="616.0" />    <vehicle id="E_W_137" type="standard_car" route="E_W" depart="616.0" />    <vehicle id="S_E_138" type="standard_car" route="N_E" depart="618.0" />    <vehicle id="E_W_139" type="standard_car" route="E_W" depart="620.0" />    <vehicle id="N_W_140" type="standard_car" route="N_W" depart="621.0" />    <vehicle id="E_W_141" type="standard_car" route="E_W" depart="621.0" />    <vehicle id="N_W_142" type="standard_car" route="N_W" depart="621.0" />    <vehicle id="S_N_143" type="standard_car" route="S_N" depart="625.0" />    <vehicle id="W_E_144" type="standard_car" route="W_E" depart="627.0" />    <vehicle id="E_W_145" type="standard_car" route="E_W" depart="632.0" />    <vehicle id="S_N_146" type="standard_car" route="S_N" depart="634.0" />    <vehicle id="E_W_147" type="standard_car" route="E_W" depart="636.0" />    <vehicle id="E_S_148" type="standard_car" route="E_S" depart="638.0" />    <vehicle id="W_E_149" type="standard_car" route="W_E" depart="642.0" />    <vehicle id="S_E_150" type="standard_car" route="N_E" depart="644.0" />    <vehicle id="E_N_151" type="standard_car" route="E_N" depart="646.0" />    <vehicle id="W_S_152" type="standard_car" route="W_S" depart="648.0" />    <vehicle id="N_S_153" type="standard_car" route="N_S" depart="652.0" />    <vehicle id="S_W_154" type="standard_car" route="S_W" depart="653.0" />    <vehicle id="S_N_155" type="standard_car" route="S_N" depart="655.0" />    <vehicle id="S_N_156" type="standard_car" route="S_N" depart="658.0" />    <vehicle id="N_S_157" type="standard_car" route="N_S" depart="664.0" />    <vehicle id="W_E_158" type="standard_car" route="W_E" depart="665.0" />    <vehicle id="N_S_159" type="standard_car" route="N_S" depart="665.0" />    <vehicle id="N_S_160" type="standard_car" route="N_S" depart="672.0" />    <vehicle id="N_S_161" type="standard_car" route="N_S" depart="673.0" />    <vehicle id="E_S_162" type="standard_car" route="E_S" depart="683.0" />    <vehicle id="E_W_163" type="standard_car" route="E_W" depart="684.0" />    <vehicle id="N_W_164" type="standard_car" route="N_W" depart="693.0" />    <vehicle id="W_E_165" type="standard_car" route="W_E" depart="696.0" />    <vehicle id="W_E_166" type="standard_car" route="W_E" depart="696.0" />    <vehicle id="N_E_167" type="standard_car" route="N_E" depart="696.0" />    <vehicle id="N_S_168" type="standard_car" route="N_S" depart="699.0" />    <vehicle id="E_W_169" type="standard_car" route="E_W" depart="702.0" />    <vehicle id="E_W_170" type="standard_car" route="E_W" depart="702.0" />    <vehicle id="N_W_171" type="standard_car" route="N_W" depart="705.0" />    <vehicle id="N_W_172" type="standard_car" route="N_W" depart="705.0" />    <vehicle id="S_N_173" type="standard_car" route="S_N" depart="706.0" />    <vehicle id="N_E_174" type="standard_car" route="N_E" depart="706.0" />    <vehicle id="E_W_175" type="standard_car" route="E_W" depart="707.0" />    <vehicle id="N_W_176" type="standard_car" route="N_W" depart="707.0" />    <vehicle id="E_W_177" type="standard_car" route="E_W" depart="708.0" />    <vehicle id="E_W_178" type="standard_car" route="E_W" depart="712.0" />    <vehicle id="N_S_179" type="standard_car" route="N_S" depart="713.0" />    <vehicle id="N_S_180" type="standard_car" route="N_S" depart="713.0" />    <vehicle id="W_E_181" type="standard_car" route="W_E" depart="714.0" />    <vehicle id="S_N_182" type="standard_car" route="S_N" depart="715.0" />    <vehicle id="N_W_183" type="standard_car" route="N_W" depart="715.0" />    <vehicle id="E_W_184" type="standard_car" route="E_W" depart="722.0" />    <vehicle id="W_N_185" type="standard_car" route="W_N" depart="725.0" />    <vehicle id="N_W_186" type="standard_car" route="N_W" depart="731.0" />    <vehicle id="N_W_187" type="standard_car" route="N_W" depart="731.0" />    <vehicle id="N_E_188" type="standard_car" route="N_E" depart="733.0" />    <vehicle id="E_W_189" type="standard_car" route="E_W" depart="734.0" />    <vehicle id="W_E_190" type="standard_car" route="W_E" depart="735.0" />    <vehicle id="W_N_191" type="standard_car" route="W_N" depart="741.0" />    <vehicle id="E_S_192" type="standard_car" route="E_S" depart="741.0" />    <vehicle id="E_W_193" type="standard_car" route="E_W" depart="744.0" />    <vehicle id="N_S_194" type="standard_car" route="N_S" depart="747.0" />    <vehicle id="S_N_195" type="standard_car" route="S_N" depart="748.0" />    <vehicle id="E_W_196" type="standard_car" route="E_W" depart="751.0" />    <vehicle id="S_N_197" type="standard_car" route="S_N" depart="755.0" />    <vehicle id="S_N_198" type="standard_car" route="S_N" depart="756.0" />    <vehicle id="W_E_199" type="standard_car" route="W_E" depart="762.0" />    <vehicle id="N_S_200" type="standard_car" route="N_S" depart="764.0" />    <vehicle id="S_N_201" type="standard_car" route="S_N" depart="764.0" />    <vehicle id="S_N_202" type="standard_car" route="S_N" depart="766.0" />    <vehicle id="N_S_203" type="standard_car" route="N_S" depart="774.0" />    <vehicle id="W_N_204" type="standard_car" route="W_N" depart="794.0" />    <vehicle id="N_E_205" type="standard_car" route="N_E" depart="795.0" />    <vehicle id="S_N_206" type="standard_car" route="S_N" depart="796.0" />    <vehicle id="W_E_207" type="standard_car" route="W_E" depart="797.0" />    <vehicle id="W_N_208" type="standard_car" route="W_N" depart="805.0" />    <vehicle id="E_W_209" type="standard_car" route="E_W" depart="805.0" />    <vehicle id="W_E_210" type="standard_car" route="W_E" depart="808.0" />    <vehicle id="N_S_211" type="standard_car" route="N_S" depart="825.0" />    <vehicle id="W_S_212" type="standard_car" route="W_S" depart="825.0" />    <vehicle id="N_S_213" type="standard_car" route="N_S" depart="825.0" />    <vehicle id="E_N_214" type="standard_car" route="E_N" depart="825.0" />    <vehicle id="N_W_215" type="standard_car" route="N_W" depart="826.0" />    <vehicle id="W_E_216" type="standard_car" route="W_E" depart="826.0" />    <vehicle id="S_E_217" type="standard_car" route="N_E" depart="833.0" />    <vehicle id="W_E_218" type="standard_car" route="W_E" depart="834.0" />    <vehicle id="E_N_219" type="standard_car" route="E_N" depart="836.0" />    <vehicle id="W_E_220" type="standard_car" route="W_E" depart="836.0" />    <vehicle id="N_S_221" type="standard_car" route="N_S" depart="839.0" />    <vehicle id="W_E_222" type="standard_car" route="W_E" depart="846.0" />    <vehicle id="E_W_223" type="standard_car" route="E_W" depart="849.0" />    <vehicle id="E_N_224" type="standard_car" route="E_N" depart="849.0" />    <vehicle id="W_E_225" type="standard_car" route="W_E" depart="851.0" />    <vehicle id="W_E_226" type="standard_car" route="W_E" depart="853.0" />    <vehicle id="S_W_227" type="standard_car" route="S_W" depart="854.0" />    <vehicle id="W_E_228" type="standard_car" route="W_E" depart="857.0" />    <vehicle id="W_N_229" type="standard_car" route="W_N" depart="857.0" />    <vehicle id="S_N_230" type="standard_car" route="S_N" depart="861.0" />    <vehicle id="W_E_231" type="standard_car" route="W_E" depart="862.0" />    <vehicle id="W_E_232" type="standard_car" route="W_E" depart="868.0" />    <vehicle id="W_E_233" type="standard_car" route="W_E" depart="872.0" />    <vehicle id="E_W_234" type="standard_car" route="E_W" depart="872.0" />    <vehicle id="N_S_235" type="standard_car" route="N_S" depart="873.0" />    <vehicle id="W_E_236" type="standard_car" route="W_E" depart="874.0" />    <vehicle id="E_W_237" type="standard_car" route="E_W" depart="874.0" />    <vehicle id="W_N_238" type="standard_car" route="W_N" depart="875.0" />    <vehicle id="N_E_239" type="standard_car" route="N_E" depart="877.0" />    <vehicle id="N_S_240" type="standard_car" route="N_S" depart="879.0" />    <vehicle id="S_N_241" type="standard_car" route="S_N" depart="879.0" />    <vehicle id="S_N_242" type="standard_car" route="S_N" depart="882.0" />    <vehicle id="S_E_243" type="standard_car" route="N_E" depart="885.0" />    <vehicle id="S_N_244" type="standard_car" route="S_N" depart="886.0" />    <vehicle id="S_N_245" type="standard_car" route="S_N" depart="886.0" />    <vehicle id="E_N_246" type="standard_car" route="E_N" depart="887.0" />    <vehicle id="W_E_247" type="standard_car" route="W_E" depart="889.0" />    <vehicle id="E_W_248" type="standard_car" route="E_W" depart="889.0" />    <vehicle id="W_E_249" type="standard_car" route="W_E" depart="892.0" />    <vehicle id="W_E_250" type="standard_car" route="W_E" depart="893.0" />    <vehicle id="E_W_251" type="standard_car" route="E_W" depart="894.0" />    <vehicle id="S_N_252" type="standard_car" route="S_N" depart="895.0" />    <vehicle id="S_N_253" type="standard_car" route="S_N" depart="895.0" />    <vehicle id="E_W_254" type="standard_car" route="E_W" depart="899.0" />    <vehicle id="N_S_255" type="standard_car" route="N_S" depart="904.0" />    <vehicle id="N_W_256" type="standard_car" route="N_W" depart="905.0" />    <vehicle id="N_W_257" type="standard_car" route="N_W" depart="906.0" />    <vehicle id="N_S_258" type="standard_car" route="N_S" depart="909.0" />    <vehicle id="N_S_259" type="standard_car" route="N_S" depart="912.0" />    <vehicle id="E_W_260" type="standard_car" route="E_W" depart="915.0" />    <vehicle id="W_S_261" type="standard_car" route="W_S" depart="924.0" />    <vehicle id="E_W_262" type="standard_car" route="E_W" depart="925.0" />    <vehicle id="S_W_263" type="standard_car" route="S_W" depart="926.0" />    <vehicle id="W_E_264" type="standard_car" route="W_E" depart="927.0" />    <vehicle id="S_N_265" type="standard_car" route="S_N" depart="929.0" />    <vehicle id="W_E_266" type="standard_car" route="W_E" depart="934.0" />    <vehicle id="S_E_267" type="standard_car" route="N_E" depart="938.0" />    <vehicle id="W_E_268" type="standard_car" route="W_E" depart="943.0" />    <vehicle id="S_E_269" type="standard_car" route="N_E" depart="943.0" />    <vehicle id="N_W_270" type="standard_car" route="N_W" depart="943.0" />    <vehicle id="N_E_271" type="standard_car" route="N_E" depart="945.0" />    <vehicle id="N_S_272" type="standard_car" route="N_S" depart="947.0" />    <vehicle id="W_E_273" type="standard_car" route="W_E" depart="947.0" />    <vehicle id="E_W_274" type="standard_car" route="E_W" depart="950.0" />    <vehicle id="W_E_275" type="standard_car" route="W_E" depart="950.0" />    <vehicle id="W_N_276" type="standard_car" route="W_N" depart="950.0" />    <vehicle id="E_W_277" type="standard_car" route="E_W" depart="951.0" />    <vehicle id="S_N_278" type="standard_car" route="S_N" depart="953.0" />    <vehicle id="E_W_279" type="standard_car" route="E_W" depart="956.0" />    <vehicle id="W_E_280" type="standard_car" route="W_E" depart="962.0" />    <vehicle id="W_E_281" type="standard_car" route="W_E" depart="963.0" />    <vehicle id="N_S_282" type="standard_car" route="N_S" depart="965.0" />    <vehicle id="S_N_283" type="standard_car" route="S_N" depart="966.0" />    <vehicle id="S_N_284" type="standard_car" route="S_N" depart="967.0" />    <vehicle id="S_N_285" type="standard_car" route="S_N" depart="967.0" />    <vehicle id="N_S_286" type="standard_car" route="N_S" depart="973.0" />    <vehicle id="W_E_287" type="standard_car" route="W_E" depart="980.0" />    <vehicle id="E_S_288" type="standard_car" route="E_S" depart="982.0" />    <vehicle id="E_W_289" type="standard_car" route="E_W" depart="982.0" />    <vehicle id="S_N_290" type="standard_car" route="S_N" depart="991.0" />    <vehicle id="W_E_291" type="standard_car" route="W_E" depart="992.0" />    <vehicle id="E_S_292" type="standard_car" route="E_S" depart="997.0" />    <vehicle id="N_S_293" type="standard_car" route="N_S" depart="1000.0" />    <vehicle id="N_S_294" type="standard_car" route="N_S" depart="1003.0" />    <vehicle id="N_S_295" type="standard_car" route="N_S" depart="1005.0" />    <vehicle id="E_W_296" type="standard_car" route="E_W" depart="1009.0" />    <vehicle id="S_N_297" type="standard_car" route="S_N" depart="1010.0" />    <vehicle id="E_W_298" type="standard_car" route="E_W" depart="1013.0" />    <vehicle id="E_W_299" type="standard_car" route="E_W" depart="1017.0" />    <vehicle id="E_N_300" type="standard_car" route="E_N" depart="1023.0" />    <vehicle id="S_N_301" type="standard_car" route="S_N" depart="1023.0" />    <vehicle id="S_N_302" type="standard_car" route="S_N" depart="1025.0" />    <vehicle id="E_W_303" type="standard_car" route="E_W" depart="1026.0" />    <vehicle id="W_E_304" type="standard_car" route="W_E" depart="1030.0" />    <vehicle id="W_E_305" type="standard_car" route="W_E" depart="1035.0" />    <vehicle id="W_N_306" type="standard_car" route="W_N" depart="1035.0" />    <vehicle id="S_N_307" type="standard_car" route="S_N" depart="1036.0" />    <vehicle id="E_W_308" type="standard_car" route="E_W" depart="1038.0" />    <vehicle id="E_N_309" type="standard_car" route="E_N" depart="1039.0" />    <vehicle id="W_E_310" type="standard_car" route="W_E" depart="1041.0" />    <vehicle id="E_W_311" type="standard_car" route="E_W" depart="1045.0" />    <vehicle id="S_N_312" type="standard_car" route="S_N" depart="1045.0" />    <vehicle id="S_E_313" type="standard_car" route="N_E" depart="1045.0" />    <vehicle id="E_W_314" type="standard_car" route="E_W" depart="1045.0" />    <vehicle id="E_W_315" type="standard_car" route="E_W" depart="1049.0" />    <vehicle id="S_N_316" type="standard_car" route="S_N" depart="1051.0" />    <vehicle id="W_E_317" type="standard_car" route="W_E" depart="1061.0" />    <vehicle id="E_W_318" type="standard_car" route="E_W" depart="1062.0" />    <vehicle id="S_E_319" type="standard_car" route="N_E" depart="1064.0" />    <vehicle id="S_N_320" type="standard_car" route="S_N" depart="1065.0" />    <vehicle id="E_W_321" type="standard_car" route="E_W" depart="1067.0" />    <vehicle id="N_W_322" type="standard_car" route="N_W" depart="1068.0" />    <vehicle id="N_W_323" type="standard_car" route="N_W" depart="1068.0" />    <vehicle id="N_S_324" type="standard_car" route="N_S" depart="1071.0" />    <vehicle id="N_S_325" type="standard_car" route="N_S" depart="1073.0" />    <vehicle id="E_W_326" type="standard_car" route="E_W" depart="1073.0" />    <vehicle id="W_E_327" type="standard_car" route="W_E" depart="1074.0" />    <vehicle id="N_S_328" type="standard_car" route="N_S" depart="1076.0" />    <vehicle id="S_N_329" type="standard_car" route="S_N" depart="1078.0" />    <vehicle id="N_S_330" type="standard_car" route="N_S" depart="1079.0" />    <vehicle id="E_W_331" type="standard_car" route="E_W" depart="1079.0" />    <vehicle id="W_S_332" type="standard_car" route="W_S" depart="1080.0" />    <vehicle id="E_W_333" type="standard_car" route="E_W" depart="1088.0" />    <vehicle id="E_W_334" type="standard_car" route="E_W" depart="1088.0" />    <vehicle id="W_E_335" type="standard_car" route="W_E" depart="1091.0" />    <vehicle id="E_S_336" type="standard_car" route="E_S" depart="1091.0" />    <vehicle id="E_W_337" type="standard_car" route="E_W" depart="1096.0" />    <vehicle id="S_N_338" type="standard_car" route="S_N" depart="1097.0" />    <vehicle id="E_W_339" type="standard_car" route="E_W" depart="1097.0" />    <vehicle id="N_W_340" type="standard_car" route="N_W" depart="1101.0" />    <vehicle id="N_S_341" type="standard_car" route="N_S" depart="1102.0" />    <vehicle id="W_N_342" type="standard_car" route="W_N" depart="1108.0" />    <vehicle id="S_N_343" type="standard_car" route="S_N" depart="1122.0" />    <vehicle id="N_S_344" type="standard_car" route="N_S" depart="1123.0" />    <vehicle id="N_S_345" type="standard_car" route="N_S" depart="1123.0" />    <vehicle id="E_N_346" type="standard_car" route="E_N" depart="1126.0" />    <vehicle id="S_N_347" type="standard_car" route="S_N" depart="1129.0" />    <vehicle id="W_E_348" type="standard_car" route="W_E" depart="1133.0" />    <vehicle id="S_N_349" type="standard_car" route="S_N" depart="1134.0" />    <vehicle id="E_N_350" type="standard_car" route="E_N" depart="1135.0" />    <vehicle id="S_N_351" type="standard_car" route="S_N" depart="1142.0" />    <vehicle id="N_W_352" type="standard_car" route="N_W" depart="1149.0" />    <vehicle id="E_W_353" type="standard_car" route="E_W" depart="1150.0" />    <vehicle id="W_E_354" type="standard_car" route="W_E" depart="1153.0" />    <vehicle id="W_E_355" type="standard_car" route="W_E" depart="1154.0" />    <vehicle id="E_W_356" type="standard_car" route="E_W" depart="1162.0" />    <vehicle id="N_S_357" type="standard_car" route="N_S" depart="1166.0" />    <vehicle id="E_W_358" type="standard_car" route="E_W" depart="1171.0" />    <vehicle id="N_S_359" type="standard_car" route="N_S" depart="1171.0" />    <vehicle id="E_W_360" type="standard_car" route="E_W" depart="1172.0" />    <vehicle id="S_N_361" type="standard_car" route="S_N" depart="1177.0" />    <vehicle id="N_E_362" type="standard_car" route="N_E" depart="1177.0" />    <vehicle id="E_W_363" type="standard_car" route="E_W" depart="1180.0" />    <vehicle id="W_E_364" type="standard_car" route="W_E" depart="1187.0" />    <vehicle id="N_W_365" type="standard_car" route="N_W" depart="1188.0" />    <vehicle id="E_N_366" type="standard_car" route="E_N" depart="1193.0" />    <vehicle id="E_W_367" type="standard_car" route="E_W" depart="1198.0" />    <vehicle id="N_S_368" type="standard_car" route="N_S" depart="1205.0" />    <vehicle id="N_S_369" type="standard_car" route="N_S" depart="1207.0" />    <vehicle id="N_E_370" type="standard_car" route="N_E" depart="1209.0" />    <vehicle id="W_E_371" type="standard_car" route="W_E" depart="1212.0" />    <vehicle id="E_W_372" type="standard_car" route="E_W" depart="1213.0" />    <vehicle id="N_S_373" type="standard_car" route="N_S" depart="1214.0" />    <vehicle id="N_E_374" type="standard_car" route="N_E" depart="1216.0" />    <vehicle id="N_S_375" type="standard_car" route="N_S" depart="1220.0" />    <vehicle id="E_W_376" type="standard_car" route="E_W" depart="1221.0" />    <vehicle id="W_E_377" type="standard_car" route="W_E" depart="1226.0" />    <vehicle id="N_S_378" type="standard_car" route="N_S" depart="1232.0" />    <vehicle id="S_W_379" type="standard_car" route="S_W" depart="1242.0" />    <vehicle id="S_W_380" type="standard_car" route="S_W" depart="1248.0" />    <vehicle id="E_W_381" type="standard_car" route="E_W" depart="1252.0" />    <vehicle id="W_E_382" type="standard_car" route="W_E" depart="1254.0" />    <vehicle id="W_E_383" type="standard_car" route="W_E" depart="1258.0" />    <vehicle id="N_S_384" type="standard_car" route="N_S" depart="1258.0" />    <vehicle id="W_E_385" type="standard_car" route="W_E" depart="1258.0" />    <vehicle id="N_W_386" type="standard_car" route="N_W" depart="1260.0" />    <vehicle id="E_S_387" type="standard_car" route="E_S" depart="1266.0" />    <vehicle id="E_W_388" type="standard_car" route="E_W" depart="1267.0" />    <vehicle id="N_S_389" type="standard_car" route="N_S" depart="1271.0" />    <vehicle id="E_N_390" type="standard_car" route="E_N" depart="1272.0" />    <vehicle id="S_E_391" type="standard_car" route="N_E" depart="1272.0" />    <vehicle id="E_W