<routes>
    <vType accel="1.0" decel="4.5" id="standard_car" length="5.0" minGap="2.5" maxSpeed="25" sigma="0.5" />

    <route id="W_N" edges="W2TL TL2N"/>
    <route id="W_E" edges="W2TL TL2E"/>
    <route id="W_S" edges="W2TL TL2S"/>
    <route id="N_W" edges="N2TL TL2W"/>
    <route id="N_E" edges="N2TL TL2E"/>
    <route id="N_S" edges="N2TL TL2S"/>
    <route id="E_W" edges="E2TL TL2W"/>
    <route id="E_N" edges="E2TL TL2N"/>
    <route id="E_S" edges="E2TL TL2S"/>
    <route id="S_W" edges="S2TL TL2W"/>
    <route id="S_N" edges="S2TL TL2N"/>
    <route id="S_E" edges="S2TL TL2E"/>    <vehicle id="W_E_0" type="standard_car" route="W_E" depart="77.0" />    <vehicle id="E_W_1" type="standard_car" route="E_W" depart="88.0" />    <vehicle id="E_W_2" type="standard_car" route="E_W" depart="93.0" />    <vehicle id="S_N_3" type="standard_car" route="S_N" depart="96.0" />    <vehicle id="N_E_4" type="standard_car" route="N_E" depart="96.0" />    <vehicle id="E_W_5" type="standard_car" route="E_W" depart="102.0" />    <vehicle id="N_W_6" type="standard_car" route="N_W" depart="108.0" />    <vehicle id="E_S_7" type="standard_car" route="E_S" depart="111.0" />    <vehicle id="W_S_8" type="standard_car" route="W_S" depart="112.0" />    <vehicle id="S_N_9" type="standard_car" route="S_N" depart="124.0" />    <vehicle id="E_W_10" type="standard_car" route="E_W" depart="124.0" />    <vehicle id="W_N_11" type="standard_car" route="W_N" depart="131.0" />    <vehicle id="E_W_12" type="standard_car" route="E_W" depart="139.0" />    <vehicle id="N_S_13" type="standard_car" route="N_S" depart="145.0" />    <vehicle id="N_W_14" type="standard_car" route="N_W" depart="145.0" />    <vehicle id="W_N_15" type="standard_car" route="W_N" depart="151.0" />    <vehicle id="S_N_16" type="standard_car" route="S_N" depart="158.0" />    <vehicle id="S_N_17" type="standard_car" route="S_N" depart="167.0" />    <vehicle id="E_W_18" type="standard_car" route="E_W" depart="195.0" />    <vehicle id="S_N_19" type="standard_car" route="S_N" depart="198.0" />    <vehicle id="E_W_20" type="standard_car" route="E_W" depart="204.0" />    <vehicle id="N_S_21" type="standard_car" route="N_S" depart="204.0" />    <vehicle id="W_E_22" type="standard_car" route="W_E" depart="207.0" />    <vehicle id="N_S_23" type="standard_car" route="N_S" depart="211.0" />    <vehicle id="E_W_24" type="standard_car" route="E_W" depart="232.0" />    <vehicle id="W_S_25" type="standard_car" route="W_S" depart="232.0" />    <vehicle id="N_S_26" type="standard_car" route="N_S" depart="236.0" />    <vehicle id="W_E_27" type="standard_car" route="W_E" depart="236.0" />    <vehicle id="W_E_28" type="standard_car" route="W_E" depart="242.0" />    <vehicle id="E_S_29" type="standard_car" route="E_S" depart="243.0" />    <vehicle id="S_N_30" type="standard_car" route="S_N" depart="245.0" />    <vehicle id="N_S_31" type="standard_car" route="N_S" depart="248.0" />    <vehicle id="S_N_32" type="standard_car" route="S_N" depart="251.0" />    <vehicle id="N_S_33" type="standard_car" route="N_S" depart="255.0" />    <vehicle id="W_E_34" type="standard_car" route="W_E" depart="257.0" />    <vehicle id="S_W_35" type="standard_car" route="S_W" depart="265.0" />    <vehicle id="W_E_36" type="standard_car" route="W_E" depart="265.0" />    <vehicle id="N_W_37" type="standard_car" route="N_W" depart="269.0" />    <vehicle id="W_E_38" type="standard_car" route="W_E" depart="269.0" />    <vehicle id="S_N_39" type="standard_car" route="S_N" depart="275.0" />    <vehicle id="S_N_40" type="standard_car" route="S_N" depart="282.0" />    <vehicle id="E_N_41" type="standard_car" route="E_N" depart="283.0" />    <vehicle id="E_W_42" type="standard_car" route="E_W" depart="283.0" />    <vehicle id="N_S_43" type="standard_car" route="N_S" depart="286.0" />    <vehicle id="W_E_44" type="standard_car" route="W_E" depart="287.0" />    <vehicle id="W_E_45" type="standard_car" route="W_E" depart="287.0" />    <vehicle id="E_W_46" type="standard_car" route="E_W" depart="297.0" />    <vehicle id="S_N_47" type="standard_car" route="S_N" depart="298.0" />    <vehicle id="E_W_48" type="standard_car" route="E_W" depart="299.0" />    <vehicle id="N_S_49" type="standard_car" route="N_S" depart="303.0" />    <vehicle id="W_E_50" type="standard_car" route="W_E" depart="306.0" />    <vehicle id="S_W_51" type="standard_car" route="S_W" depart="307.0" />    <vehicle id="S_N_52" type="standard_car" route="S_N" depart="313.0" />    <vehicle id="N_S_53" type="standard_car" route="N_S" depart="318.0" />    <vehicle id="S_N_54" type="standard_car" route="S_N" depart="333.0" />    <vehicle id="N_S_55" type="standard_car" route="N_S" depart="334.0" />    <vehicle id="S_N_56" type="standard_car" route="S_N" depart="334.0" />    <vehicle id="E_W_57" type="standard_car" route="E_W" depart="341.0" />    <vehicle id="W_N_58" type="standard_car" route="W_N" depart="348.0" />    <vehicle id="N_S_59" type="standard_car" route="N_S" depart="350.0" />    <vehicle id="W_E_60" type="standard_car" route="W_E" depart="352.0" />    <vehicle id="S_N_61" type="standard_car" route="S_N" depart="358.0" />    <vehicle id="E_W_62" type="standard_car" route="E_W" depart="361.0" />    <vehicle id="W_S_63" type="standard_car" route="W_S" depart="363.0" />    <vehicle id="W_E_64" type="standard_car" route="W_E" depart="366.0" />    <vehicle id="S_W_65" type="standard_car" route="S_W" depart="370.0" />    <vehicle id="E_W_66" type="standard_car" route="E_W" depart="370.0" />    <vehicle id="N_S_67" type="standard_car" route="N_S" depart="372.0" />    <vehicle id="S_E_68" type="standard_car" route="N_E" depart="384.0" />    <vehicle id="S_N_69" type="standard_car" route="S_N" depart="389.0" />    <vehicle id="N_S_70" type="standard_car" route="N_S" depart="390.0" />    <vehicle id="S_E_71" type="standard_car" route="N_E" depart="390.0" />    <vehicle id="W_N_72" type="standard_car" route="W_N" depart="394.0" />    <vehicle id="S_N_73" type="standard_car" route="S_N" depart="394.0" />    <vehicle id="N_S_74" type="standard_car" route="N_S" depart="396.0" />    <vehicle id="E_W_75" type="standard_car" route="E_W" depart="401.0" />    <vehicle id="S_N_76" type="standard_car" route="S_N" depart="405.0" />    <vehicle id="N_S_77" type="standard_car" route="N_S" depart="407.0" />    <vehicle id="N_S_78" type="standard_car" route="N_S" depart="408.0" />    <vehicle id="S_N_79" type="standard_car" route="S_N" depart="412.0" />    <vehicle id="W_E_80" type="standard_car" route="W_E" depart="413.0" />    <vehicle id="S_E_81" type="standard_car" route="N_E" depart="414.0" />    <vehicle id="E_N_82" type="standard_car" route="E_N" depart="420.0" />    <vehicle id="E_W_83" type="standard_car" route="E_W" depart="423.0" />    <vehicle id="E_N_84" type="standard_car" route="E_N" depart="424.0" />    <vehicle id="S_E_85" type="standard_car" route="N_E" depart="425.0" />    <vehicle id="W_E_86" type="standard_car" route="W_E" depart="426.0" />    <vehicle id="N_S_87" type="standard_car" route="N_S" depart="433.0" />    <vehicle id="W_E_88" type="standard_car" route="W_E" depart="436.0" />    <vehicle id="N_W_89" type="standard_car" route="N_W" depart="436.0" />    <vehicle id="E_W_90" type="standard_car" route="E_W" depart="437.0" />    <vehicle id="N_S_91" type="standard_car" route="N_S" depart="439.0" />    <vehicle id="S_W_92" type="standard_car" route="S_W" depart="441.0" />    <vehicle id="W_E_93" type="standard_car" route="W_E" depart="441.0" />    <vehicle id="S_N_94" type="standard_car" route="S_N" depart="443.0" />    <vehicle id="W_E_95" type="standard_car" route="W_E" depart="445.0" />    <vehicle id="E_S_96" type="standard_car" route="E_S" depart="447.0" />    <vehicle id="W_E_97" type="standard_car" route="W_E" depart="449.0" />    <vehicle id="W_E_98" type="standard_car" route="W_E" depart="457.0" />    <vehicle id="W_E_99" type="standard_car" route="W_E" depart="459.0" />    <vehicle id="N_S_100" type="standard_car" route="N_S" depart="467.0" />    <vehicle id="S_E_101" type="standard_car" route="N_E" depart="468.0" />    <vehicle id="E_N_102" type="standard_car" route="E_N" depart="474.0" />    <vehicle id="S_N_103" type="standard_car" route="S_N" depart="477.0" />    <vehicle id="E_S_104" type="standard_car" route="E_S" depart="478.0" />    <vehicle id="S_N_105" type="standard_car" route="S_N" depart="479.0" />    <vehicle id="W_E_106" type="standard_car" route="W_E" depart="482.0" />    <vehicle id="W_E_107" type="standard_car" route="W_E" depart="483.0" />    <vehicle id="S_N_108" type="standard_car" route="S_N" depart="484.0" />    <vehicle id="W_E_109" type="standard_car" route="W_E" depart="486.0" />    <vehicle id="E_W_110" type="standard_car" route="E_W" depart="494.0" />    <vehicle id="E_W_111" type="standard_car" route="E_W" depart="496.0" />    <vehicle id="N_S_112" type="standard_car" route="N_S" depart="497.0" />    <vehicle id="N_S_113" type="standard_car" route="N_S" depart="500.0" />    <vehicle id="S_E_114" type="standard_car" route="N_E" depart="509.0" />    <vehicle id="W_E_115" type="standard_car" route="W_E" depart="517.0" />    <vehicle id="W_E_116" type="standard_car" route="W_E" depart="518.0" />    <vehicle id="W_E_117" type="standard_car" route="W_E" depart="522.0" />    <vehicle id="N_S_118" type="standard_car" route="N_S" depart="523.0" />    <vehicle id="N_E_119" type="standard_car" route="N_E" depart="525.0" />    <vehicle id="N_S_120" type="standard_car" route="N_S" depart="525.0" />    <vehicle id="N_E_121" type="standard_car" route="N_E" depart="525.0" />    <vehicle id="S_N_122" type="standard_car" route="S_N" depart="531.0" />    <vehicle id="N_S_123" type="standard_car" route="N_S" depart="532.0" />    <vehicle id="E_W_124" type="standard_car" route="E_W" depart="546.0" />    <vehicle id="N_S_125" type="standard_car" route="N_S" depart="548.0" />    <vehicle id="E_S_126" type="standard_car" route="E_S" depart="550.0" />    <vehicle id="E_W_127" type="standard_car" route="E_W" depart="551.0" />    <vehicle id="N_S_128" type="standard_car" route="N_S" depart="553.0" />    <vehicle id="E_W_129" type="standard_car" route="E_W" depart="553.0" />    <vehicle id="S_W_130" type="standard_car" route="S_W" depart="560.0" />    <vehicle id="E_W_131" type="standard_car" route="E_W" depart="561.0" />    <vehicle id="N_S_132" type="standard_car" route="N_S" depart="561.0" />    <vehicle id="S_N_133" type="standard_car" route="S_N" depart="562.0" />    <vehicle id="W_S_134" type="standard_car" route="W_S" depart="566.0" />    <vehicle id="S_N_135" type="standard_car" route="S_N" depart="570.0" />    <vehicle id="E_W_136" type="standard_car" route="E_W" depart="570.0" />    <vehicle id="W_S_137" type="standard_car" route="W_S" depart="571.0" />    <vehicle id="N_S_138" type="standard_car" route="N_S" depart="572.0" />    <vehicle id="N_S_139" type="standard_car" route="N_S" depart="575.0" />    <vehicle id="S_W_140" type="standard_car" route="S_W" depart="578.0" />    <vehicle id="W_N_141" type="standard_car" route="W_N" depart="579.0" />    <vehicle id="W_E_142" type="standard_car" route="W_E" depart="581.0" />    <vehicle id="E_W_143" type="standard_car" route="E_W" depart="581.0" />    <vehicle id="W_S_144" type="standard_car" route="W_S" depart="583.0" />    <vehicle id="E_W_145" type="standard_car" route="E_W" depart="586.0" />    <vehicle id="S_E_146" type="standard_car" route="N_E" depart="587.0" />    <vehicle id="N_S_147" type="standard_car" route="N_S" depart="595.0" />    <vehicle id="E_W_148" type="standard_car" route="E_W" depart="595.0" />    <vehicle id="E_W_149" type="standard_car" route="E_W" depart="596.0" />    <vehicle id="E_N_150" type="standard_car" route="E_N" depart="601.0" />    <vehicle id="N_S_151" type="standard_car" route="N_S" depart="603.0" />    <vehicle id="E_W_152" type="standard_car" route="E_W" depart="606.0" />    <vehicle id="E_W_153" type="standard_car" route="E_W" depart="615.0" />    <vehicle id="E_W_154" type="standard_car" route="E_W" depart="621.0" />    <vehicle id="S_N_155" type="standard_car" route="S_N" depart="621.0" />    <vehicle id="E_S_156" type="standard_car" route="E_S" depart="627.0" />    <vehicle id="E_S_157" type="standard_car" route="E_S" depart="627.0" />    <vehicle id="N_S_158" type="standard_car" route="N_S" depart="629.0" />    <vehicle id="N_S_159" type="standard_car" route="N_S" depart="638.0" />    <vehicle id="E_W_160" type="standard_car" route="E_W" depart="640.0" />    <vehicle id="W_E_161" type="standard_car" route="W_E" depart="641.0" />    <vehicle id="S_E_162" type="standard_car" route="N_E" depart="643.0" />    <vehicle id="W_E_163" type="standard_car" route="W_E" depart="646.0" />    <vehicle id="S_N_164" type="standard_car" route="S_N" depart="649.0" />    <vehicle id="W_E_165" type="standard_car" route="W_E" depart="649.0" />    <vehicle id="N_W_166" type="standard_car" route="N_W" depart="654.0" />    <vehicle id="E_W_167" type="standard_car" route="E_W" depart="659.0" />    <vehicle id="W_E_168" type="standard_car" route="W_E" depart="659.0" />    <vehicle id="N_E_169" type="standard_car" route="N_E" depart="660.0" />    <vehicle id="S_N_170" type="standard_car" route="S_N" depart="662.0" />    <vehicle id="W_E_171" type="standard_car" route="W_E" depart="662.0" />    <vehicle id="E_S_172" type="standard_car" route="E_S" depart="663.0" />    <vehicle id="W_E_173" type="standard_car" route="W_E" depart="667.0" />    <vehicle id="E_W_174" type="standard_car" route="E_W" depart="667.0" />    <vehicle id="W_E_175" type="standard_car" route="W_E" depart="668.0" />    <vehicle id="S_N_176" type="standard_car" route="S_N" depart="668.0" />    <vehicle id="S_E_177" type="standard_car" route="N_E" depart="668.0" />    <vehicle id="W_S_178" type="standard_car" route="W_S" depart="669.0" />    <vehicle id="W_E_179" type="standard_car" route="W_E" depart="670.0" />    <vehicle id="S_N_180" type="standard_car" route="S_N" depart="670.0" />    <vehicle id="S_N_181" type="standard_car" route="S_N" depart="675.0" />    <vehicle id="N_S_182" type="standard_car" route="N_S" depart="680.0" />    <vehicle id="N_S_183" type="standard_car" route="N_S" depart="680.0" />    <vehicle id="W_N_184" type="standard_car" route="W_N" depart="686.0" />    <vehicle id="S_N_185" type="standard_car" route="S_N" depart="686.0" />    <vehicle id="S_W_186" type="standard_car" route="S_W" depart="694.0" />    <vehicle id="W_S_187" type="standard_car" route="W_S" depart="695.0" />    <vehicle id="N_E_188" type="standard_car" route="N_E" depart="696.0" />    <vehicle id="W_E_189" type="standard_car" route="W_E" depart="697.0" />    <vehicle id="S_N_190" type="standard_car" route="S_N" depart="698.0" />    <vehicle id="S_N_191" type="standard_car" route="S_N" depart="702.0" />    <vehicle id="W_N_192" type="standard_car" route="W_N" depart="705.0" />    <vehicle id="N_S_193" type="standard_car" route="N_S" depart="707.0" />    <vehicle id="E_S_194" type="standard_car" route="E_S" depart="708.0" />    <vehicle id="S_N_195" type="standard_car" route="S_N" depart="710.0" />    <vehicle id="N_S_196" type="standard_car" route="N_S" depart="712.0" />    <vehicle id="N_E_197" type="standard_car" route="N_E" depart="713.0" />    <vehicle id="W_E_198" type="standard_car" route="W_E" depart="713.0" />    <vehicle id="N_E_199" type="standard_car" route="N_E" depart="717.0" />    <vehicle id="E_W_200" type="standard_car" route="E_W" depart="725.0" />    <vehicle id="E_N_201" type="standard_car" route="E_N" depart="726.0" />    <vehicle id="S_N_202" type="standard_car" route="S_N" depart="728.0" />    <vehicle id="N_E_203" type="standard_car" route="N_E" depart="728.0" />    <vehicle id="E_N_204" type="standard_car" route="E_N" depart="731.0" />    <vehicle id="N_S_205" type="standard_car" route="N_S" depart="732.0" />    <vehicle id="E_S_206" type="standard_car" route="E_S" depart="732.0" />    <vehicle id="N_S_207" type="standard_car" route="N_S" depart="734.0" />    <vehicle id="E_W_208" type="standard_car" route="E_W" depart="736.0" />    <vehicle id="N_E_209" type="standard_car" route="N_E" depart="739.0" />    <vehicle id="S_N_210" type="standard_car" route="S_N" depart="741.0" />    <vehicle id="E_W_211" type="standard_car" route="E_W" depart="743.0" />    <vehicle id="W_E_212" type="standard_car" route="W_E" depart="745.0" />    <vehicle id="W_E_213" type="standard_car" route="W_E" depart="745.0" />    <vehicle id="W_S_214" type="standard_car" route="W_S" depart="746.0" />    <vehicle id="N_E_215" type="standard_car" route="N_E" depart="747.0" />    <vehicle id="S_N_216" type="standard_car" route="S_N" depart="747.0" />    <vehicle id="S_N_217" type="standard_car" route="S_N" depart="750.0" />    <vehicle id="E_S_218" type="standard_car" route="E_S" depart="750.0" />    <vehicle id="E_N_219" type="standard_car" route="E_N" depart="755.0" />    <vehicle id="S_N_220" type="standard_car" route="S_N" depart="756.0" />    <vehicle id="S_N_221" type="standard_car" route="S_N" depart="757.0" />    <vehicle id="N_S_222" type="standard_car" route="N_S" depart="761.0" />    <vehicle id="E_W_223" type="standard_car" route="E_W" depart="765.0" />    <vehicle id="E_W_224" type="standard_car" route="E_W" depart="768.0" />    <vehicle id="E_W_225" type="standard_car" route="E_W" depart="776.0" />    <vehicle id="N_S_226" type="standard_car" route="N_S" depart="778.0" />    <vehicle id="N_S_227" type="standard_car" route="N_S" depart="779.0" />    <vehicle id="S_N_228" type="standard_car" route="S_N" depart="788.0" />    <vehicle id="E_W_229" type="standard_car" route="E_W" depart="788.0" />    <vehicle id="N_S_230" type="standard_car" route="N_S" depart="789.0" />    <vehicle id="N_S_231" type="standard_car" route="N_S" depart="789.0" />    <vehicle id="S_W_232" type="standard_car" route="S_W" depart="790.0" />    <vehicle id="W_E_233" type="standard_car" route="W_E" depart="791.0" />    <vehicle id="N_S_234" type="standard_car" route="N_S" depart="794.0" />    <vehicle id="N_S_235" type="standard_car" route="N_S" depart="795.0" />    <vehicle id="E_W_236" type="standard_car" route="E_W" depart="796.0" />    <vehicle id="S_W_237" type="standard_car" route="S_W" depart="798.0" />    <vehicle id="W_E_238" type="standard_car" route="W_E" depart="799.0" />    <vehicle id="W_E_239" type="standard_car" route="W_E" depart="804.0" />    <vehicle id="S_N_240" type="standard_car" route="S_N" depart="810.0" />    <vehicle id="N_S_241" type="standard_car" route="N_S" depart="814.0" />    <vehicle id="W_S_242" type="standard_car" route="W_S" depart="819.0" />    <vehicle id="S_N_243" type="standard_car" route="S_N" depart="821.0" />    <vehicle id="S_N_244" type="standard_car" route="S_N" depart="822.0" />    <vehicle id="E_W_245" type="standard_car" route="E_W" depart="823.0" />    <vehicle id="N_S_246" type="standard_car" route="N_S" depart="825.0" />    <vehicle id="E_W_247" type="standard_car" route="E_W" depart="835.0" />    <vehicle id="N_S_248" type="standard_car" route="N_S" depart="838.0" />    <vehicle id="W_S_249" type="standard_car" route="W_S" depart="841.0" />    <vehicle id="S_E_250" type="standard_car" route="N_E" depart="843.0" />    <vehicle id="E_W_251" type="standard_car" route="E_W" depart="843.0" />    <vehicle id="S_E_252" type="standard_car" route="N_E" depart="850.0" />    <vehicle id="S_N_253" type="standard_car" route="S_N" depart="855.0" />    <vehicle id="S_N_254" type="standard_car" route="S_N" depart="857.0" />    <vehicle id="E_W_255" type="standard_car" route="E_W" depart="858.0" />    <vehicle id="E_W_256" type="standard_car" route="E_W" depart="858.0" />    <vehicle id="N_W_257" type="standard_car" route="N_W" depart="858.0" />    <vehicle id="N_E_258" type="standard_car" route="N_E" depart="859.0" />    <vehicle id="N_S_259" type="standard_car" route="N_S" depart="864.0" />    <vehicle id="S_W_260" type="standard_car" route="S_W" depart="864.0" />    <vehicle id="E_W_261" type="standard_car" route="E_W" depart="872.0" />    <vehicle id="W_S_262" type="standard_car" route="W_S" depart="879.0" />    <vehicle id="N_S_263" type="standard_car" route="N_S" depart="884.0" />    <vehicle id="N_S_264" type="standard_car" route="N_S" depart="885.0" />    <vehicle id="E_W_265" type="standard_car" route="E_W" depart="886.0" />    <vehicle id="W_E_266" type="standard_car" route="W_E" depart="886.0" />    <vehicle id="E_N_267" type="standard_car" route="E_N" depart="888.0" />    <vehicle id="E_N_268" type="standard_car" route="E_N" depart="890.0" />    <vehicle id="E_N_269" type="standard_car" route="E_N" depart="890.0" />    <vehicle id="S_N_270" type="standard_car" route="S_N" depart="890.0" />    <vehicle id="W_E_271" type="standard_car" route="W_E" depart="891.0" />    <vehicle id="N_S_272" type="standard_car" route="N_S" depart="900.0" />    <vehicle id="S_N_273" type="standard_car" route="S_N" depart="902.0" />    <vehicle id="S_N_274" type="standard_car" route="S_N" depart="903.0" />    <vehicle id="N_S_275" type="standard_car" route="N_S" depart="908.0" />    <vehicle id="S_N_276" type="standard_car" route="S_N" depart="915.0" />    <vehicle id="N_E_277" type="standard_car" route="N_E" depart="917.0" />    <vehicle id="S_N_278" type="standard_car" route="S_N" depart="918.0" />    <vehicle id="W_S_279" type="standard_car" route="W_S" depart="921.0" />    <vehicle id="E_W_280" type="standard_car" route="E_W" depart="921.0" />    <vehicle id="E_S_281" type="standard_car" route="E_S" depart="921.0" />    <vehicle id="E_W_282" type="standard_car" route="E_W" depart="925.0" />    <vehicle id="E_W_283" type="standard_car" route="E_W" depart="925.0" />    <vehicle id="E_W_284" type="standard_car" route="E_W" depart="928.0" />    <vehicle id="E_W_285" type="standard_car" route="E_W" depart="929.0" />    <vehicle id="N_W_286" type="standard_car" route="N_W" depart="932.0" />    <vehicle id="S_N_287" type="standard_car" route="S_N" depart="934.0" />    <vehicle id="N_S_288" type="standard_car" route="N_S" depart="934.0" />    <vehicle id="N_S_289" type="standard_car" route="N_S" depart="936.0" />    <vehicle id="S_N_290" type="standard_car" route="S_N" depart="937.0" />    <vehicle id="E_W_291" type="standard_car" route="E_W" depart="937.0" />    <vehicle id="E_W_292" type="standard_car" route="E_W" depart="939.0" />    <vehicle id="N_S_293" type="standard_car" route="N_S" depart="941.0" />    <vehicle id="S_N_294" type="standard_car" route="S_N" depart="942.0" />    <vehicle id="E_W_295" type="standard_car" route="E_W" depart="947.0" />    <vehicle id="E_S_296" type="standard_car" route="E_S" depart="947.0" />    <vehicle id="N_S_297" type="standard_car" route="N_S" depart="949.0" />    <vehicle id="E_W_298" type="standard_car" route="E_W" depart="954.0" />    <vehicle id="N_S_299" type="standard_car" route="N_S" depart="955.0" />    <vehicle id="E_W_300" type="standard_car" route="E_W" depart="957.0" />    <vehicle id="W_E_301" type="standard_car" route="W_E" depart="957.0" />    <vehicle id="E_W_302" type="standard_car" route="E_W" depart="959.0" />    <vehicle id="E_S_303" type="standard_car" route="E_S" depart="960.0" />    <vehicle id="W_E_304" type="standard_car" route="W_E" depart="961.0" />    <vehicle id="W_E_305" type="standard_car" route="W_E" depart="967.0" />    <vehicle id="N_W_306" type="standard_car" route="N_W" depart="969.0" />    <vehicle id="W_S_307" type="standard_car" route="W_S" depart="970.0" />    <vehicle id="S_N_308" type="standard_car" route="S_N" depart="975.0" />    <vehicle id="E_W_309" type="standard_car" route="E_W" depart="976.0" />    <vehicle id="W_N_310" type="standard_car" route="W_N" depart="978.0" />    <vehicle id="S_N_311" type="standard_car" route="S_N" depart="981.0" />    <vehicle id="S_N_312" type="standard_car" route="S_N" depart="982.0" />    <vehicle id="E_W_313" type="standard_car" route="E_W" depart="982.0" />    <vehicle id="N_W_314" type="standard_car" route="N_W" depart="992.0" />    <vehicle id="N_W_315" type="standard_car" route="N_W" depart="994.0" />    <vehicle id="W_E_316" type="standard_car" route="W_E" depart="998.0" />    <vehicle id="N_S_317" type="standard_car" route="N_S" depart="998.0" />    <vehicle id="E_W_318" type="standard_car" route="E_W" depart="1000.0" />    <vehicle id="W_E_319" type="standard_car" route="W_E" depart="1003.0" />    <vehicle id="W_N_320" type="standard_car" route="W_N" depart="1005.0" />    <vehicle id="E_W_321" type="standard_car" route="E_W" depart="1005.0" />    <vehicle id="W_S_322" type="standard_car" route="W_S" depart="1006.0" />    <vehicle id="W_E_323" type="standard_car" route="W_E" depart="1009.0" />    <vehicle id="E_W_324" type="standard_car" route="E_W" depart="1009.0" />    <vehicle id="W_E_325" type="standard_car" route="W_E" depart="1016.0" />    <vehicle id="E_W_326" type="standard_car" route="E_W" depart="1021.0" />    <vehicle id="W_E_327" type="standard_car" route="W_E" depart="1023.0" />    <vehicle id="W_E_328" type="standard_car" route="W_E" depart="1025.0" />    <vehicle id="N_S_329" type="standard_car" route="N_S" depart="1027.0" />    <vehicle id="E_W_330" type="standard_car" route="E_W" depart="1028.0" />    <vehicle id="W_E_331" type="standard_car" route="W_E" depart="1029.0" />    <vehicle id="W_N_332" type="standard_car" route="W_N" depart="1032.0" />    <vehicle id="S_N_333" type="standard_car" route="S_N" depart="1034.0" />    <vehicle id="N_S_334" type="standard_car" route="N_S" depart="1036.0" />    <vehicle id="E_W_335" type="standard_car" route="E_W" depart="1037.0" />    <vehicle id="E_W_336" type="standard_car" route="E_W" depart="1041.0" />    <vehicle id="S_W_337" type="standard_car" route="S_W" depart="1048.0" />    <vehicle id="W_S_338" type="standard_car" route="W_S" depart="1049.0" />    <vehicle id="E_W_339" type="standard_car" route="E_W" depart="1050.0" />    <vehicle id="W_E_340" type="standard_car" route="W_E" depart="1050.0" />    <vehicle id="E_N_341" type="standard_car" route="E_N" depart="1050.0" />    <vehicle id="N_S_342" type="standard_car" route="N_S" depart="1050.0" />    <vehicle id="S_N_343" type="standard_car" route="S_N" depart="1056.0" />    <vehicle id="N_W_344" type="standard_car" route="N_W" depart="1057.0" />    <vehicle id="N_S_345" type="standard_car" route="N_S" depart="1068.0" />    <vehicle id="N_S_346" type="standard_car" route="N_S" depart="1072.0" />    <vehicle id="W_E_347" type="standard_car" route="W_E" depart="1074.0" />    <vehicle id="S_E_348" type="standard_car" route="N_E" depart="1076.0" />    <vehicle id="E_N_349" type="standard_car" route="E_N" depart="1081.0" />    <vehicle id="E_S_350" type="standard_car" route="E_S" depart="1092.0" />    <vehicle id="N_E_351" type="standard_car" route="N_E" depart="1092.0" />    <vehicle id="S_N_352" type="standard_car" route="S_N" depart="1094.0" />    <vehicle id="N_S_353" type="standard_car" route="N_S" depart="1095.0" />    <vehicle id="N_S_354" type="standard_car" route="N_S" depart="1095.0" />    <vehicle id="W_E_355" type="standard_car" route="W_E" depart="1096.0" />    <vehicle id="N_E_356" type="standard_car" route="N_E" depart="1108.0" />    <vehicle id="E_W_357" type="standard_car" route="E_W" depart="1114.0" />    <vehicle id="N_S_358" type="standard_car" route="N_S" depart="1116.0" />    <vehicle id="E_W_359" type="standard_car" route="E_W" depart="1117.0" />    <vehicle id="E_S_360" type="standard_car" route="E_S" depart="1118.0" />    <vehicle id="S_N_361" type="standard_car" route="S_N" depart="1119.0" />    <vehicle id="N_S_362" type="standard_car" route="N_S" depart="1121.0" />    <vehicle id="N_E_363" type="standard_car" route="N_E" depart="1122.0" />    <vehicle id="N_S_364" type="standard_car" route="N_S" depart="1125.0" />    <vehicle id="E_W_365" type="standard_car" route="E_W" depart="1129.0" />    <vehicle id="N_S_366" type="standard_car" route="N_S" depart="1129.0" />    <vehicle id="S_N_367" type="standard_car" route="S_N" depart="1133.0" />    <vehicle id="E_W_368" type="standard_car" route="E_W" depart="1136.0" />    <vehicle id="W_N_369" type="standard_car" route="W_N" depart="1139.0" />    <vehicle id="E_W_370" type="standard_car" route="E_W" depart="1140.0" />    <vehicle id="N_W_371" type="standard_car" route="N_W" depart="1142.0" />    <vehicle id="E_W_372" type="standard_car" route="E_W" depart="1144.0" />    <vehicle id="E_W_373" type="standard_car" route="E_W" depart="1144.0" />    <vehicle id="N_S_374" type="standard_car" route="N_S" depart="1145.0" />    <vehicle id="S_N_375" type="standard_car" route="S_N" depart="1145.0" />    <vehicle id="W_E_376" type="standard_car" route="W_E" depart="1150.0" />    <vehicle id="S_N_377" type="standard_car" route="S_N" depart="1153.0" />    <vehicle id="S_N_378" type="standard_car" route="S_N" depart="1153.0" />    <vehicle id="W_E_379" type="standard_car" route="W_E" depart="1154.0" />    <vehicle id="E_W_380" type="standard_car" route="E_W" depart="1154.0" />    <vehicle id="S_N_381" type="standard_car" route="S_N" depart="1155.0" />    <vehicle id="S_N_382" type="standard_car" route="S_N" depart="1156.0" />    <vehicle id="N_W_383" type="standard_car" route="N_W" depart="1157.0" />    <vehicle id="S_N_384" type="standard_car" route="S_N" depart="1161.0" />    <vehicle id="S_N_385" type="standard_car" route="S_N" depart="1163.0" />    <vehicle id="W_E_386" type="standard_car" route="W_E" depart="1164.0" />    <vehicle id="S_W_387" type="standard_car" route="S_W" depart="1164.0" />    <vehicle id="W_E_388" type="standard_car" route="W_E" depart="1178.0" />    <vehicle id="N_S_389" type="standard_car" route="N_S" depart="1180.0" />    <vehicle id="N_S_390" type="standard_car" route="N_S" depart="1180.0" />    <vehicle id="E_N_391" type="standard_car" route="E_N" depart="1189.0" />    <vehicle id="E_W_392" type="standard_car