<routes xmlns:xsi="http://www.w3.org/2001/XMLSchema-instance" xsi:noNamespaceSchemaLocation="http://sumo.dlr.de/xsd/routes_file.xsd">

        <!-- <vType id="SUMO_DEFAULT_TYPE" accel="0.8" decel="4.5" sigma="0" length="5" minGap="2" maxSpeed="70"/> -->

        <vType accel="1.0" decel="4.5" id="SUMO_DEFAULT_TYPE" length="5.0" minGap="2.5" maxSpeed="25" sigma="0.5" />

        <route id="west_to_north" edges="1_1_1-1_1_0 1_1_0-1_1_3"/>
        <route id="west_to_east" edges="1_1_1-1_1_0 1_1_0-1_1_5"/>
        <route id="west_to_south" edges="1_1_1-1_1_0 1_1_0-1_1_7"/>
        <route id="north_to_west" edges="1_1_3-1_1_0 1_1_0-1_1_1"/>
        <route id="north_to_east" edges="1_1_3-1_1_0 1_1_0-1_1_5"/>
        <route id="north_to_south" edges="1_1_3-1_1_0 1_1_0-1_1_7"/>
        <route id="east_to_west" edges="1_1_5-1_1_0 1_1_0-1_1_1"/>
        <route id="east_to_north" edges="1_1_5-1_1_0 1_1_0-1_1_3"/>
        <route id="east_to_south" edges="1_1_5-1_1_0 1_1_0-1_1_7"/>
        <route id="south_to_west" edges="1_1_7-1_1_0 1_1_0-1_1_1"/>
        <route id="south_to_north" edges="1_1_7-1_1_0 1_1_0-1_1_3"/>
        <route id="south_to_east" edges="1_1_7-1_1_0 1_1_0-1_1_5"/>

        
    <vehicle id="E2W_0" type="SUMO_DEFAULT_TYPE" route="east_to_west" depart="0" />
    <vehicle id="N2E_1" type="SUMO_DEFAULT_TYPE" route="north_to_east" depart="0" color="1,0,0"/>
    <vehicle id="W2E_2" type="SUMO_DEFAULT_TYPE" route="west_to_east" depart="1" />
    <vehicle id="S2E_3" type="SUMO_DEFAULT_TYPE" route="south_to_east" depart="1" color="1,0,0"/>
    <vehicle id="N2W_4" type="SUMO_DEFAULT_TYPE" route="north_to_west" depart="3" color="1,0,0"/>
    <vehicle id="S2E_5" type="SUMO_DEFAULT_TYPE" route="south_to_east" depart="5" color="1,0,0"/>
    <vehicle id="N2W_6" type="SUMO_DEFAULT_TYPE" route="north_to_west" depart="7" color="1,0,0"/>
    <vehicle id="W2S_7" type="SUMO_DEFAULT_TYPE" route="west_to_south" depart="8" color="1,0,0"/>
    <vehicle id="W2S_8" type="SUMO_DEFAULT_TYPE" route="west_to_south" depart="10" color="1,0,0"/>
    <vehicle id="E2N_9" type="SUMO_DEFAULT_TYPE" route="east_to_north" depart="10" color="1,0,0"/>
    <vehicle id="N2W_10" type="SUMO_DEFAULT_TYPE" route="north_to_west" depart="22" color="1,0,0"/>
    <vehicle id="N2S_11" type="SUMO_DEFAULT_TYPE" route="north_to_south" depart="24" />
    <vehicle id="N2E_12" type="SUMO_DEFAULT_TYPE" route="north_to_east" depart="24" color="1,0,0"/>
    <vehicle id="W2E_13" type="SUMO_DEFAULT_TYPE" route="west_to_east" depart="27" />
    <vehicle id="E2N_14" type="SUMO_DEFAULT_TYPE" route="east_to_north" depart="28" color="1,0,0"/>
    <vehicle id="W2N_15" type="SUMO_DEFAULT_TYPE" route="west_to_north" depart="30" color="1,0,0"/>
    <vehicle id="E2S_16" type="SUMO_DEFAULT_TYPE" route="east_to_south" depart="32" color="1,0,0"/>
    <vehicle id="S2E_17" type="SUMO_DEFAULT_TYPE" route="south_to_east" depart="34" color="1,0,0"/>
    <vehicle id="S2E_18" type="SUMO_DEFAULT_TYPE" route="south_to_east" depart="35" color="1,0,0"/>
    <vehicle id="E2W_19" type="SUMO_DEFAULT_TYPE" route="east_to_west" depart="39" />
    <vehicle id="E2W_20" type="SUMO_DEFAULT_TYPE" route="east_to_west" depart="40" />
    <vehicle id="E2W_21" type="SUMO_DEFAULT_TYPE" route="east_to_west" depart="41" />
    <vehicle id="N2E_22" type="SUMO_DEFAULT_TYPE" route="north_to_east" depart="41" color="1,0,0"/>
    <vehicle id="W2E_23" type="SUMO_DEFAULT_TYPE" route="west_to_east" depart="42" />
    <vehicle id="N2S_24" type="SUMO_DEFAULT_TYPE" route="north_to_south" depart="43" />
    <vehicle id="W2E_25" type="SUMO_DEFAULT_TYPE" route="west_to_east" depart="44" />
    <vehicle id="S2N_26" type="SUMO_DEFAULT_TYPE" route="south_to_north" depart="45" />
    <vehicle id="E2W_27" type="SUMO_DEFAULT_TYPE" route="east_to_west" depart="49" />
    <vehicle id="E2S_28" type="SUMO_DEFAULT_TYPE" route="east_to_south" depart="49" color="1,0,0"/>
    <vehicle id="E2W_29" type="SUMO_DEFAULT_TYPE" route="east_to_west" depart="53" />
    <vehicle id="W2E_30" type="SUMO_DEFAULT_TYPE" route="west_to_east" depart="57" />
    <vehicle id="E2W_31" type="SUMO_DEFAULT_TYPE" route="east_to_west" depart="68" />
    <vehicle id="W2E_32" type="SUMO_DEFAULT_TYPE" route="west_to_east" depart="72" />
    <vehicle id="E2N_33" type="SUMO_DEFAULT_TYPE" route="east_to_north" depart="73" color="1,0,0"/>
    <vehicle id="W2N_34" type="SUMO_DEFAULT_TYPE" route="west_to_north" depart="79" color="1,0,0"/>
    <vehicle id="E2N_35" type="SUMO_DEFAULT_TYPE" route="east_to_north" depart="80" color="1,0,0"/>
    <vehicle id="S2W_36" type="SUMO_DEFAULT_TYPE" route="south_to_west" depart="82" color="1,0,0"/>
    <vehicle id="N2W_37" type="SUMO_DEFAULT_TYPE" route="north_to_west" depart="84" color="1,0,0"/>
    <vehicle id="E2N_38" type="SUMO_DEFAULT_TYPE" route="east_to_north" depart="85" color="1,0,0"/>
    <vehicle id="E2W_39" type="SUMO_DEFAULT_TYPE" route="east_to_west" depart="86" />
    <vehicle id="N2S_40" type="SUMO_DEFAULT_TYPE" route="north_to_south" depart="86" />
    <vehicle id="N2W_41" type="SUMO_DEFAULT_TYPE" route="north_to_west" depart="87" color="1,0,0"/>
    <vehicle id="N2E_42" type="SUMO_DEFAULT_TYPE" route="north_to_east" depart="93" color="1,0,0"/>
    <vehicle id="N2W_43" type="SUMO_DEFAULT_TYPE" route="north_to_west" depart="94" color="1,0,0"/>
    <vehicle id="S2W_44" type="SUMO_DEFAULT_TYPE" route="south_to_west" depart="94" color="1,0,0"/>
    <vehicle id="E2W_45" type="SUMO_DEFAULT_TYPE" route="east_to_west" depart="97" />
    <vehicle id="W2S_46" type="SUMO_DEFAULT_TYPE" route="west_to_south" depart="97" color="1,0,0"/>
    <vehicle id="E2S_47" type="SUMO_DEFAULT_TYPE" route="east_to_south" depart="97" color="1,0,0"/>
    <vehicle id="N2E_48" type="SUMO_DEFAULT_TYPE" route="north_to_east" depart="98" color="1,0,0"/>
    <vehicle id="N2W_49" type="SUMO_DEFAULT_TYPE" route="north_to_west" depart="99" color="1,0,0"/>
    <vehicle id="E2W_50" type="SUMO_DEFAULT_TYPE" route="east_to_west" depart="105" />
    <vehicle id="N2S_51" type="SUMO_DEFAULT_TYPE" route="north_to_south" depart="110" />
    <vehicle id="N2W_52" type="SUMO_DEFAULT_TYPE" route="north_to_west" depart="114" color="1,0,0"/>
    <vehicle id="S2W_53" type="SUMO_DEFAULT_TYPE" route="south_to_west" depart="114" color="1,0,0"/>
    <vehicle id="S2W_54" type="SUMO_DEFAULT_TYPE" route="south_to_west" depart="115" color="1,0,0"/>
    <vehicle id="W2S_55" type="SUMO_DEFAULT_TYPE" route="west_to_south" depart="117" color="1,0,0"/>
    <vehicle id="E2W_56" type="SUMO_DEFAULT_TYPE" route="east_to_west" depart="119" />
    <vehicle id="W2E_57" type="SUMO_DEFAULT_TYPE" route="west_to_east" depart="121" />
    <vehicle id="E2W_58" type="SUMO_DEFAULT_TYPE" route="east_to_west" depart="124" />
    <vehicle id="N2W_59" type="SUMO_DEFAULT_TYPE" route="north_to_west" depart="125" color="1,0,0"/>
    <vehicle id="W2N_60" type="SUMO_DEFAULT_TYPE" route="west_to_north" depart="129" color="1,0,0"/>
    <vehicle id="W2E_61" type="SUMO_DEFAULT_TYPE" route="west_to_east" depart="134" />
    <vehicle id="E2W_62" type="SUMO_DEFAULT_TYPE" route="east_to_west" depart="134" />
    <vehicle id="E2W_63" type="SUMO_DEFAULT_TYPE" route="east_to_west" depart="138" />
    <vehicle id="N2W_64" type="SUMO_DEFAULT_TYPE" route="north_to_west" depart="143" color="1,0,0"/>
    <vehicle id="S2E_65" type="SUMO_DEFAULT_TYPE" route="south_to_east" depart="144" color="1,0,0"/>
    <vehicle id="E2S_66" type="SUMO_DEFAULT_TYPE" route="east_to_south" depart="144" color="1,0,0"/>
    <vehicle id="S2E_67" type="SUMO_DEFAULT_TYPE" route="south_to_east" depart="150" color="1,0,0"/>
    <vehicle id="W2E_68" type="SUMO_DEFAULT_TYPE" route="west_to_east" depart="153" />
    <vehicle id="N2S_69" type="SUMO_DEFAULT_TYPE" route="north_to_south" depart="156" />
    <vehicle id="W2E_70" type="SUMO_DEFAULT_TYPE" route="west_to_east" depart="159" />
    <vehicle id="W2E_71" type="SUMO_DEFAULT_TYPE" route="west_to_east" depart="161" />
    <vehicle id="S2E_72" type="SUMO_DEFAULT_TYPE" route="south_to_east" depart="161" color="1,0,0"/>
    <vehicle id="N2W_73" type="SUMO_DEFAULT_TYPE" route="north_to_west" depart="163" color="1,0,0"/>
    <vehicle id="E2N_74" type="SUMO_DEFAULT_TYPE" route="east_to_north" depart="163" color="1,0,0"/>
    <vehicle id="E2S_75" type="SUMO_DEFAULT_TYPE" route="east_to_south" depart="164" color="1,0,0"/>
    <vehicle id="E2W_76" type="SUMO_DEFAULT_TYPE" route="east_to_west" depart="165" />
    <vehicle id="W2S_77" type="SUMO_DEFAULT_TYPE" route="west_to_south" depart="165" color="1,0,0"/>
    <vehicle id="W2E_78" type="SUMO_DEFAULT_TYPE" route="west_to_east" depart="167" />
    <vehicle id="E2S_79" type="SUMO_DEFAULT_TYPE" route="east_to_south" depart="170" color="1,0,0"/>
    <vehicle id="S2N_80" type="SUMO_DEFAULT_TYPE" route="south_to_north" depart="175" />
    <vehicle id="W2E_81" type="SUMO_DEFAULT_TYPE" route="west_to_east" depart="176" />
    <vehicle id="W2N_82" type="SUMO_DEFAULT_TYPE" route="west_to_north" depart="176" color="1,0,0"/>
    <vehicle id="E2S_83" type="SUMO_DEFAULT_TYPE" route="east_to_south" depart="176" color="1,0,0"/>
    <vehicle id="N2S_84" type="SUMO_DEFAULT_TYPE" route="north_to_south" depart="177" />
    <vehicle id="N2W_85" type="SUMO_DEFAULT_TYPE" route="north_to_west" depart="179" color="1,0,0"/>
    <vehicle id="S2E_86" type="SUMO_DEFAULT_TYPE" route="south_to_east" depart="180" color="1,0,0"/>
    <vehicle id="W2E_87" type="SUMO_DEFAULT_TYPE" route="west_to_east" depart="181" />
    <vehicle id="N2W_88" type="SUMO_DEFAULT_TYPE" route="north_to_west" depart="183" color="1,0,0"/>
    <vehicle id="E2W_89" type="SUMO_DEFAULT_TYPE" route="east_to_west" depart="185" />
    <vehicle id="E2S_90" type="SUMO_DEFAULT_TYPE" route="east_to_south" depart="185" color="1,0,0"/>
    <vehicle id="S2E_91" type="SUMO_DEFAULT_TYPE" route="south_to_east" depart="193" color="1,0,0"/>
    <vehicle id="N2S_92" type="SUMO_DEFAULT_TYPE" route="north_to_south" depart="194" />
    <vehicle id="N2S_93" type="SUMO_DEFAULT_TYPE" route="north_to_south" depart="195" />
    <vehicle id="S2W_94" type="SUMO_DEFAULT_TYPE" route="south_to_west" depart="197" color="1,0,0"/>
    <vehicle id="W2E_95" type="SUMO_DEFAULT_TYPE" route="west_to_east" depart="202" />
    <vehicle id="N2S_96" type="SUMO_DEFAULT_TYPE" route="north_to_south" depart="202" />
    <vehicle id="E2W_97" type="SUMO_DEFAULT_TYPE" route="east_to_west" depart="203" />
    <vehicle id="N2W_98" type="SUMO_DEFAULT_TYPE" route="north_to_west" depart="204" color="1,0,0"/>
    <vehicle id="W2N_99" type="SUMO_DEFAULT_TYPE" route="west_to_north" depart="209" color="1,0,0"/>
    <vehicle id="W2S_100" type="SUMO_DEFAULT_TYPE" route="west_to_south" depart="211" color="1,0,0"/>
    <vehicle id="S2W_101" type="SUMO_DEFAULT_TYPE" route="south_to_west" depart="211" color="1,0,0"/>
    <vehicle id="S2E_102" type="SUMO_DEFAULT_TYPE" route="south_to_east" depart="213" color="1,0,0"/>
    <vehicle id="W2E_103" type="SUMO_DEFAULT_TYPE" route="west_to_east" depart="214" />
    <vehicle id="S2E_104" type="SUMO_DEFAULT_TYPE" route="south_to_east" depart="215" color="1,0,0"/>
    <vehicle id="N2E_105" type="SUMO_DEFAULT_TYPE" route="north_to_east" depart="219" color="1,0,0"/>
    <vehicle id="W2E_106" type="SUMO_DEFAULT_TYPE" route="west_to_east" depart="220" />
    <vehicle id="E2W_107" type="SUMO_DEFAULT_TYPE" route="east_to_west" depart="220" />
    <vehicle id="E2W_108" type="SUMO_DEFAULT_TYPE" route="east_to_west" depart="222" />
    <vehicle id="S2W_109" type="SUMO_DEFAULT_TYPE" route="south_to_west" depart="223" color="1,0,0"/>
    <vehicle id="N2W_110" type="SUMO_DEFAULT_TYPE" route="north_to_west" depart="225" color="1,0,0"/>
    <vehicle id="S2W_111" type="SUMO_DEFAULT_TYPE" route="south_to_west" depart="227" color="1,0,0"/>
    <vehicle id="W2E_112" type="SUMO_DEFAULT_TYPE" route="west_to_east" depart="229" />
    <vehicle id="S2E_113" type="SUMO_DEFAULT_TYPE" route="south_to_east" depart="229" color="1,0,0"/>
    <vehicle id="N2E_114" type="SUMO_DEFAULT_TYPE" route="north_to_east" depart="234" color="1,0,0"/>
    <vehicle id="N2W_115" type="SUMO_DEFAULT_TYPE" route="north_to_west" depart="235" color="1,0,0"/>
    <vehicle id="W2S_116" type="SUMO_DEFAULT_TYPE" route="west_to_south" depart="236" color="1,0,0"/>
    <vehicle id="W2E_117" type="SUMO_DEFAULT_TYPE" route="west_to_east" depart="237" />
    <vehicle id="E2N_118" type="SUMO_DEFAULT_TYPE" route="east_to_north" depart="237" color="1,0,0"/>
    <vehicle id="E2W_119" type="SUMO_DEFAULT_TYPE" route="east_to_west" depart="238" />
    <vehicle id="N2W_120" type="SUMO_DEFAULT_TYPE" route="north_to_west" depart="242" color="1,0,0"/>
    <vehicle id="W2N_121" type="SUMO_DEFAULT_TYPE" route="west_to_north" depart="243" color="1,0,0"/>
    <vehicle id="W2S_122" type="SUMO_DEFAULT_TYPE" route="west_to_south" depart="244" color="1,0,0"/>
    <vehicle id="S2N_123" type="SUMO_DEFAULT_TYPE" route="south_to_north" depart="247" />
    <vehicle id="N2S_124" type="SUMO_DEFAULT_TYPE" route="north_to_south" depart="249" />
    <vehicle id="S2E_125" type="SUMO_DEFAULT_TYPE" route="south_to_east" depart="251" color="1,0,0"/>
    <vehicle id="S2E_126" type="SUMO_DEFAULT_TYPE" route="south_to_east" depart="253" color="1,0,0"/>
    <vehicle id="N2S_127" type="SUMO_DEFAULT_TYPE" route="north_to_south" depart="261" />
    <vehicle id="N2E_128" type="SUMO_DEFAULT_TYPE" route="north_to_east" depart="261" color="1,0,0"/>
    <vehicle id="N2S_129" type="SUMO_DEFAULT_TYPE" route="north_to_south" depart="264" />
    <vehicle id="S2N_130" type="SUMO_DEFAULT_TYPE" route="south_to_north" depart="265" />
    <vehicle id="W2E_131" type="SUMO_DEFAULT_TYPE" route="west_to_east" depart="267" />
    <vehicle id="S2N_132" type="SUMO_DEFAULT_TYPE" route="south_to_north" depart="267" />
    <vehicle id="S2E_133" type="SUMO_DEFAULT_TYPE" route="south_to_east" depart="267" color="1,0,0"/>
    <vehicle id="W2S_134" type="SUMO_DEFAULT_TYPE" route="west_to_south" depart="271" color="1,0,0"/>
    <vehicle id="E2W_135" type="SUMO_DEFAULT_TYPE" route="east_to_west" depart="276" />
    <vehicle id="N2S_136" type="SUMO_DEFAULT_TYPE" route="north_to_south" depart="277" />
    <vehicle id="N2W_137" type="SUMO_DEFAULT_TYPE" route="north_to_west" depart="277" color="1,0,0"/>
    <vehicle id="N2W_138" type="SUMO_DEFAULT_TYPE" route="north_to_west" depart="280" color="1,0,0"/>
    <vehicle id="E2W_139" type="SUMO_DEFAULT_TYPE" route="east_to_west" depart="281" />
    <vehicle id="N2W_140" type="SUMO_DEFAULT_TYPE" route="north_to_west" depart="283" color="1,0,0"/>
    <vehicle id="E2S_141" type="SUMO_DEFAULT_TYPE" route="east_to_south" depart="283" color="1,0,0"/>
    <vehicle id="S2N_142" type="SUMO_DEFAULT_TYPE" route="south_to_north" depart="285" />
    <vehicle id="N2W_143" type="SUMO_DEFAULT_TYPE" route="north_to_west" depart="288" color="1,0,0"/>
    <vehicle id="E2W_144" type="SUMO_DEFAULT_TYPE" route="east_to_west" depart="289" />
    <vehicle id="E2W_145" type="SUMO_DEFAULT_TYPE" route="east_to_west" depart="293" />
    <vehicle id="W2S_146" type="SUMO_DEFAULT_TYPE" route="west_to_south" depart="295" color="1,0,0"/>
    <vehicle id="N2W_147" type="SUMO_DEFAULT_TYPE" route="north_to_west" depart="297" color="1,0,0"/>
    <vehicle id="W2E_148" type="SUMO_DEFAULT_TYPE" route="west_to_east" depart="302" />
    <vehicle id="W2E_149" type="SUMO_DEFAULT_TYPE" route="west_to_east" depart="303" />
    <vehicle id="S2E_150" type="SUMO_DEFAULT_TYPE" route="south_to_east" depart="304" color="1,0,0"/>
    <vehicle id="W2S_151" type="SUMO_DEFAULT_TYPE" route="west_to_south" depart="309" color="1,0,0"/>
    <vehicle id="S2E_152" type="SUMO_DEFAULT_TYPE" route="south_to_east" depart="311" color="1,0,0"/>
    <vehicle id="E2W_153" type="SUMO_DEFAULT_TYPE" route="east_to_west" depart="313" />
    <vehicle id="E2S_154" type="SUMO_DEFAULT_TYPE" route="east_to_south" depart="313" color="1,0,0"/>
    <vehicle id="N2E_155" type="SUMO_DEFAULT_TYPE" route="north_to_east" depart="316" color="1,0,0"/>
    <vehicle id="W2S_156" type="SUMO_DEFAULT_TYPE" route="west_to_south" depart="320" color="1,0,0"/>
    <vehicle id="S2N_157" type="SUMO_DEFAULT_TYPE" route="south_to_north" depart="322" />
    <vehicle id="N2W_158" type="SUMO_DEFAULT_TYPE" route="north_to_west" depart="322" color="1,0,0"/>
    <vehicle id="E2N_159" type="SUMO_DEFAULT_TYPE" route="east_to_north" depart="325" color="1,0,0"/>
    <vehicle id="W2E_160" type="SUMO_DEFAULT_TYPE" route="west_to_east" depart="326" />
    <vehicle id="N2W_161" type="SUMO_DEFAULT_TYPE" route="north_to_west" depart="329" color="1,0,0"/>
    <vehicle id="E2N_162" type="SUMO_DEFAULT_TYPE" route="east_to_north" depart="329" color="1,0,0"/>
    <vehicle id="W2E_163" type="SUMO_DEFAULT_TYPE" route="west_to_east" depart="330" />
    <vehicle id="E2N_164" type="SUMO_DEFAULT_TYPE" route="east_to_north" depart="330" color="1,0,0"/>
    <vehicle id="E2W_165" type="SUMO_DEFAULT_TYPE" route="east_to_west" depart="333" />
    <vehicle id="E2W_166" type="SUMO_DEFAULT_TYPE" route="east_to_west" depart="336" />
    <vehicle id="S2N_167" type="SUMO_DEFAULT_TYPE" route="south_to_north" depart="339" />
    <vehicle id="N2S_168" type="SUMO_DEFAULT_TYPE" route="north_to_south" depart="341" />
    <vehicle id="S2E_169" type="SUMO_DEFAULT_TYPE" route="south_to_east" depart="341" color="1,0,0"/>
    <vehicle id="N2E_170" type="SUMO_DEFAULT_TYPE" route="north_to_east" depart="341" color="1,0,0"/>
    <vehicle id="N2S_171" type="SUMO_DEFAULT_TYPE" route="north_to_south" depart="345" />
    <vehicle id="W2E_172" type="SUMO_DEFAULT_TYPE" route="west_to_east" depart="346" />
    <vehicle id="S2E_173" type="SUMO_DEFAULT_TYPE" route="south_to_east" depart="348" color="1,0,0"/>
    <vehicle id="W2N_174" type="SUMO_DEFAULT_TYPE" route="west_to_north" depart="350" color="1,0,0"/>
    <vehicle id="W2E_175" type="SUMO_DEFAULT_TYPE" route="west_to_east" depart="355" />
    <vehicle id="S2N_176" type="SUMO_DEFAULT_TYPE" route="south_to_north" depart="358" />
    <vehicle id="N2S_177" type="SUMO_DEFAULT_TYPE" route="north_to_south" depart="359" />
    <vehicle id="W2S_178" type="SUMO_DEFAULT_TYPE" route="west_to_south" depart="360" color="1,0,0"/>
    <vehicle id="E2N_179" type="SUMO_DEFAULT_TYPE" route="east_to_north" depart="362" color="1,0,0"/>
    <vehicle id="S2W_180" type="SUMO_DEFAULT_TYPE" route="south_to_west" depart="362" color="1,0,0"/>
    <vehicle id="S2N_181" type="SUMO_DEFAULT_TYPE" route="south_to_north" depart="363" />
    <vehicle id="S2E_182" type="SUMO_DEFAULT_TYPE" route="south_to_east" depart="363" color="1,0,0"/>
    <vehicle id="S2W_183" type="SUMO_DEFAULT_TYPE" route="south_to_west" depart="365" color="1,0,0"/>
    <vehicle id="W2E_184" type="SUMO_DEFAULT_TYPE" route="west_to_east" depart="366" />
    <vehicle id="S2E_185" type="SUMO_DEFAULT_TYPE" route="south_to_east" depart="369" color="1,0,0"/>
    <vehicle id="S2W_186" type="SUMO_DEFAULT_TYPE" route="south_to_west" depart="370" color="1,0,0"/>
    <vehicle id="W2E_187" type="SUMO_DEFAULT_TYPE" route="west_to_east" depart="371" />
    <vehicle id="W2E_188" type="SUMO_DEFAULT_TYPE" route="west_to_east" depart="372" />
    <vehicle id="N2E_189" type="SUMO_DEFAULT_TYPE" route="north_to_east" depart="374" color="1,0,0"/>
    <vehicle id="E2W_190" type="SUMO_DEFAULT_TYPE" route="east_to_west" depart="375" />
    <vehicle id="N2W_191" type="SUMO_DEFAULT_TYPE" route="north_to_west" depart="383" color="1,0,0"/>
    <vehicle id="E2W_192" type="SUMO_DEFAULT_TYPE" route="east_to_west" depart="384" />
    <vehicle id="W2E_193" type="SUMO_DEFAULT_TYPE" route="west_to_east" depart="386" />
    <vehicle id="E2S_194" type="SUMO_DEFAULT_TYPE" route="east_to_south" depart="386" color="1,0,0"/>
    <vehicle id="S2E_195" type="SUMO_DEFAULT_TYPE" route="south_to_east" depart="388" color="1,0,0"/>
    <vehicle id="S2E_196" type="SUMO_DEFAULT_TYPE" route="south_to_east" depart="390" color="1,0,0"/>
    <vehicle id="N2S_197" type="SUMO_DEFAULT_TYPE" route="north_to_south" depart="392" />
    <vehicle id="E2N_198" type="SUMO_DEFAULT_TYPE" route="east_to_north" depart="392" color="1,0,0"/>
    <vehicle id="W2S_199" type="SUMO_DEFAULT_TYPE" route="west_to_south" depart="393" color="1,0,0"/>
    <vehicle id="S2E_200" type="SUMO_DEFAULT_TYPE" route="south_to_east" depart="393" color="1,0,0"/>
    <vehicle id="W2E_201" type="SUMO_DEFAULT_TYPE" route="west_to_east" depart="394" />
    <vehicle id="N2S_202" type="SUMO_DEFAULT_TYPE" route="north_to_south" depart="394" />
    <vehicle id="W2N_203" type="SUMO_DEFAULT_TYPE" route="west_to_north" depart="394" color="1,0,0"/>
    <vehicle id="E2S_204" type="SUMO_DEFAULT_TYPE" route="east_to_south" depart="395" color="1,0,0"/>
    <vehicle id="S2N_205" type="SUMO_DEFAULT_TYPE" route="south_to_north" depart="397" />
    <vehicle id="W2E_206" type="SUMO_DEFAULT_TYPE" route="west_to_east" depart="403" />
    <vehicle id="N2S_207" type="SUMO_DEFAULT_TYPE" route="north_to_south" depart="403" />
    <vehicle id="N2W_208" type="SUMO_DEFAULT_TYPE" route="north_to_west" depart="404" color="1,0,0"/>
    <vehicle id="E2N_209" type="SUMO_DEFAULT_TYPE" route="east_to_north" depart="405" color="1,0,0"/>
    <vehicle id="N2W_210" type="SUMO_DEFAULT_TYPE" route="north_to_west" depart="411" color="1,0,0"/>
    <vehicle id="E2N_211" type="SUMO_DEFAULT_TYPE" route="east_to_north" depart="412" color="1,0,0"/>
    <vehicle id="N2W_212" type="SUMO_DEFAULT_TYPE" route="north_to_west" depart="417" color="1,0,0"/>
    <vehicle id="E2N_213" type="SUMO_DEFAULT_TYPE" route="east_to_north" depart="417" color="1,0,0"/>
    <vehicle id="W2S_214" type="SUMO_DEFAULT_TYPE" route="west_to_south" depart="418" color="1,0,0"/>
    <vehicle id="S2W_215" type="SUMO_DEFAULT_TYPE" route="south_to_west" depart="418" color="1,0,0"/>
    <vehicle id="W2S_216" type="SUMO_DEFAULT_TYPE" route="west_to_south" depart="419" color="1,0,0"/>
    <vehicle id="W2N_217" type="SUMO_DEFAULT_TYPE" route="west_to_north" depart="421" color="1,0,0"/>
    <vehicle id="S2E_218" type="SUMO_DEFAULT_TYPE" route="south_to_east" depart="422" color="1,0,0"/>
    <vehicle id="W2N_219" type="SUMO_DEFAULT_TYPE" route="west_to_north" depart="423" color="1,0,0"/>
    <vehicle id="N2S_220" type="SUMO_DEFAULT_TYPE" route="north_to_south" depart="425" />
    <vehicle id="S2W_221" type="SUMO_DEFAULT_TYPE" route="south_to_west" depart="426" color="1,0,0"/>
    <vehicle id="W2S_222" type="SUMO_DEFAULT_TYPE" route="west_to_south" depart="431" color="1,0,0"/>
    <vehicle id="W2N_223" type="SUMO_DEFAULT_TYPE" route="west_to_north" depart="435" color="1,0,0"/>
    <vehicle id="E2W_224" type="SUMO_DEFAULT_TYPE" route="east_to_west" depart="437" />
    <vehicle id="W2N_225" type="SUMO_DEFAULT_TYPE" route="west_to_north" depart="439" color="1,0,0"/>
    <vehicle id="S2E_226" type="SUMO_DEFAULT_TYPE" route="south_to_east" depart="444" color="1,0,0"/>
    <vehicle id="W2E_227" type="SUMO_DEFAULT_TYPE" route="west_to_east" depart="445" />
    <vehicle id="S2N_228" type="SUMO_DEFAULT_TYPE" route="south_to_north" depart="446" />
    <vehicle id="S2E_229" type="SUMO_DEFAULT_TYPE" route="south_to_east" depart="449" color="1,0,0"/>
    <vehicle id="E2W_230" type="SUMO_DEFAULT_TYPE" route="east_to_west" depart="450" />
    <vehicle id="W2E_231" type="SUMO_DEFAULT_TYPE" route="west_to_east" depart="452" />
    <vehicle id="S2E_232" type="SUMO_DEFAULT_TYPE" route="south_to_east" depart="452" color="1,0,0"/>
    <vehicle id="W2S_233" type="SUMO_DEFAULT_TYPE" route="west_to_south" depart="458" color="1,0,0"/>
    <vehicle id="W2E_234" type="SUMO_DEFAULT_TYPE" route="west_to_east" depart="462" />
    <vehicle id="S2E_235" type="SUMO_DEFAULT_TYPE" route="south_to_east" depart="463" color="1,0,0"/>
    <vehicle id="W2N_236" type="SUMO_DEFAULT_TYPE" route="west_to_north" depart="466" color="1,0,0"/>
    <vehicle id="E2S_237" type="SUMO_DEFAULT_TYPE" route="east_to_south" depart="466" color="1,0,0"/>
    <vehicle id="E2W_238" type="SUMO_DEFAULT_TYPE" route="east_to_west" depart="468" />
    <vehicle id="W2N_239" type="SUMO_DEFAULT_TYPE" route="west_to_north" depart="468" color="1,0,0"/>
    <vehicle id="S2N_240" type="SUMO_DEFAULT_TYPE" route="south_to_north" depart="476" />
    <vehicle id="N2W_241" type="SUMO_DEFAULT_TYPE" route="north_to_west" depart="476" color="1,0,0"/>
    <vehicle id="W2S_242" type="SUMO_DEFAULT_TYPE" route="west_to_south" depart="477" color="1,0,0"/>
    <vehicle id="W2S_243" type="SUMO_DEFAULT_TYPE" route="west_to_south" depart="478" color="1,0,0"/>
    <vehicle id="N2W_244" type="SUMO_DEFAULT_TYPE" route="north_to_west" depart="479" color="1,0,0"/>
    <vehicle id="W2S_245" type="SUMO_DEFAULT_TYPE" route="west_to_south" depart="488" color="1,0,0"/>
    <vehicle id="S2W_246" type="SUMO_DEFAULT_TYPE" route="south_to_west" depart="489" color="1,0,0"/>
    <vehicle id="N2W_247" type="SUMO_DEFAULT_TYPE" route="north_to_west" depart="492" color="1,0,0"/>
    <vehicle id="N2S_248" type="SUMO_DEFAULT_TYPE" route="north_to_south" depart="497" />
    <vehicle id="S2N_249" type="SUMO_DEFAULT_TYPE" route="south_to_north" depart="497" />
    <vehicle id="N2E_250" type="SUMO_DEFAULT_TYPE" route="north_to_east" depart="501" color="1,0,0"/>
    <vehicle id="W2S_251" type="SUMO_DEFAULT_TYPE" route="west_to_south" depart="504" color="1,0,0"/>
    <vehicle id="E2N_252" type="SUMO_DEFAULT_TYPE" route="east_to_north" depart="505" color="1,0,0"/>
    <vehicle id="E2W_253" type="SUMO_DEFAULT_TYPE" route="east_to_west" depart="506" />
    <vehicle id="E2S_254" type="SUMO_DEFAULT_TYPE" route="east_to_south" depart="507" color="1,0,0"/>
    <vehicle id="S2E_255" type="SUMO_DEFAULT_TYPE" route="south_to_east" depart="516" color="1,0,0"/>
    <vehicle id="N2S_256" type="SUMO_DEFAULT_TYPE" route="north_to_south" depart="517" />
    <vehicle id="N2S_257" type="SUMO_DEFAULT_TYPE" route="north_to_south" depart="519" />
    <vehicle id="S2E_258" type="SUMO_DEFAULT_TYPE" route="south_to_east" depart="519" color="1,0,0"/>
    <vehicle id="E2S_259" type="SUMO_DEFAULT_TYPE" route="east_to_south" depart="520" color="1,0,0"/>
    <vehicle id="W2S_260" type="SUMO_DEFAULT_TYPE" route="west_to_south" depart="525" color="1,0,0"/>
    <vehicle id="E2N_261" type="SUMO_DEFAULT_TYPE" route="east_to_north" depart="529" color="1,0,0"/>
    <vehicle id="S2E_262" type="SUMO_DEFAULT_TYPE" route="south_to_east" depart="533" color="1,0,0"/>
    <vehicle id="S2N_263" type="SUMO_DEFAULT_TYPE" route="south_to_north" depart="536" />
    <vehicle id="N2E_264" type="SUMO_DEFAULT_TYPE" route="north_to_east" depart="537" color="1,0,0"/>
    <vehicle id="E2W_265" type="SUMO_DEFAULT_TYPE" route="east_to_west" depart="544" />
    <vehicle id="E2W_266" type="SUMO_DEFAULT_TYPE" route="east_to_west" depart="549" />
    <vehicle id="S2E_267" type="SUMO_DEFAULT_TYPE" route="south_to_east" depart="549" color="1,0,0"/>
    <vehicle id="W2N_268" type="SUMO_DEFAULT_TYPE" route="west_to_north" depart="551" color="1,0,0"/>
    <vehicle id="E2S_269" type="SUMO_DEFAULT_TYPE" route="east_to_south" depart="552" color="1,0,0"/>
    <vehicle id="N2W_270" type="SUMO_DEFAULT_TYPE" route="north_to_west" depart="558" color="1,0,0"/>
    <vehicle id="S2E_271" type="SUMO_DEFAULT_TYPE" route="south_to_east" depart="558" color="1,0,0"/>
    <vehicle id="S2N_272" type="SUMO_DEFAULT_TYPE" route="south_to_north" depart="561" />
    <vehicle id="W2N_273" type="SUMO_DEFAULT_TYPE" route="west_to_north" depart="562" color="1,0,0"/>
    <vehicle id="E2S_274" type="SUMO_DEFAULT_TYPE" route="east_to_south" depart="562" color="1,0,0"/>
    <vehicle id="S2W_275" type="SUMO_DEFAULT_TYPE" route="south_to_west" depart="563" color="1,0,0"/>
    <vehicle id="S2W_276" type="SUMO_DEFAULT_TYPE" route="south_to_west" depart="564" color="1,0,0"/>
    <vehicle id="S2N_277" type="SUMO_DEFAULT_TYPE" route="south_to_north" depart="567" />
    <vehicle id="W2E_278" type="SUMO_DEFAULT_TYPE" route="west_to_east" depart="570" />
    <vehicle id="E2W_279" type="SUMO_DEFAULT_TYPE" route="east_to_west" depart="570" />
    <vehicle id="S2E_280" type="SUMO_DEFAULT_TYPE" route="south_to_east" depart="570" color="1,0,0"/>
    <vehicle id="W2S_281" type="SUMO_DEFAULT_TYPE" route="west_to_south" depart="571" color="1,0,0"/>
    <vehicle id="W2E_282" type="SUMO_DEFAULT_TYPE" route="west_to_east" depart="576" />
    <vehicle id="N2S_283" type="SUMO_DEFAULT_TYPE" route="north_to_south" depart="576" />
    <vehicle id="N2S_284" type="SUMO_DEFAULT_TYPE" route="north_to_south" depart="578" />
    <vehicle id="E2N_285" type="SUMO_DEFAULT_TYPE" route="east_to_north" depart="579" color="1,0,0"/>
    <vehicle id="E2N_286" type="SUMO_DEFAULT_TYPE" route="east_to_north" depart="580" color="1,0,0"/>
    <vehicle id="E2N_287" type="SUMO_DEFAULT_TYPE" route="east_to_north" depart="581" color="1,0,0"/>
    <vehicle id="W2E_288" type="SUMO_DEFAULT_TYPE" route="west_to_east" depart="584" />
    <vehicle id="S2E_289" type="SUMO_DEFAULT_TYPE" route="south_to_east" depart="587" color="1,0,0"/>
    <vehicle id="W2E_290" type="SUMO_DEFAULT_TYPE" route="west_to_east" depart="592" />
    <vehicle id="S2W_291" type="SUMO_DEFAULT_TYPE" route="south_to_west" depart="592" color="1,0,0"/>
    <vehicle id="W2S_292" type="SUMO_DEFAULT_TYPE" route="west_to_south" depart="594" color="1,0,0"/>
    <vehicle id="E2S_293" type="SUMO_DEFAULT_TYPE" route="east_to_south" depart="597" color="1,0,0"/>
    <vehicle id="S2N_294" type="SUMO_DEFAULT_TYPE" route="south_to_north" depart="598" />
    <vehicle id="E2W_295" type="SUMO_DEFAULT_TYPE" route="east_to_west" depart="599" />
    <vehicle id="W2E_296" type="SUMO_DEFAULT_TYPE" route="west_to_east" depart="601" />
    <vehicle id="S2N_297" type="SUMO_DEFAULT_TYPE" route="south_to_north" depart="601" />
    <vehicle id="S2N_298" type="SUMO_DEFAULT_TYPE" route="south_to_north" depart="602" />