<routes>
    <vType accel="1.0" decel="4.5" id="standard_car" length="5.0" minGap="2.5" maxSpeed="25" sigma="0.5" />

    <route id="W_N" edges="W2TL TL2N"/>
    <route id="W_E" edges="W2TL TL2E"/>
    <route id="W_S" edges="W2TL TL2S"/>
    <route id="N_W" edges="N2TL TL2W"/>
    <route id="N_E" edges="N2TL TL2E"/>
    <route id="N_S" edges="N2TL TL2S"/>
    <route id="E_W" edges="E2TL TL2W"/>
    <route id="E_N" edges="E2TL TL2N"/>
    <route id="E_S" edges="E2TL TL2S"/>
    <route id="S_W" edges="S2TL TL2W"/>
    <route id="S_N" edges="S2TL TL2N"/>
    <route id="S_E" edges="S2TL TL2E"/>    <vehicle id="E_W_0" type="standard_car" route="E_W" depart="3.0" />    <vehicle id="E_S_1" type="standard_car" route="E_S" depart="8.0" />    <vehicle id="S_N_2" type="standard_car" route="S_N" depart="8.0" />    <vehicle id="N_S_3" type="standard_car" route="N_S" depart="9.0" />    <vehicle id="N_S_4" type="standard_car" route="N_S" depart="10.0" />    <vehicle id="W_N_5" type="standard_car" route="W_N" depart="11.0" />    <vehicle id="E_W_6" type="standard_car" route="E_W" depart="13.0" />    <vehicle id="S_N_7" type="standard_car" route="S_N" depart="13.0" />    <vehicle id="W_E_8" type="standard_car" route="W_E" depart="14.0" />    <vehicle id="S_N_9" type="standard_car" route="S_N" depart="14.0" />    <vehicle id="N_S_10" type="standard_car" route="N_S" depart="15.0" />    <vehicle id="S_N_11" type="standard_car" route="S_N" depart="15.0" />    <vehicle id="N_S_12" type="standard_car" route="N_S" depart="17.0" />    <vehicle id="E_W_13" type="standard_car" route="E_W" depart="17.0" />    <vehicle id="S_N_14" type="standard_car" route="S_N" depart="18.0" />    <vehicle id="S_N_15" type="standard_car" route="S_N" depart="18.0" />    <vehicle id="N_S_16" type="standard_car" route="N_S" depart="19.0" />    <vehicle id="E_W_17" type="standard_car" route="E_W" depart="20.0" />    <vehicle id="S_N_18" type="standard_car" route="S_N" depart="20.0" />    <vehicle id="E_W_19" type="standard_car" route="E_W" depart="20.0" />    <vehicle id="E_W_20" type="standard_car" route="E_W" depart="20.0" />    <vehicle id="E_W_21" type="standard_car" route="E_W" depart="20.0" />    <vehicle id="S_N_22" type="standard_car" route="S_N" depart="20.0" />    <vehicle id="N_E_23" type="standard_car" route="N_E" depart="21.0" />    <vehicle id="E_W_24" type="standard_car" route="E_W" depart="21.0" />    <vehicle id="N_S_25" type="standard_car" route="N_S" depart="21.0" />    <vehicle id="W_E_26" type="standard_car" route="W_E" depart="22.0" />    <vehicle id="N_S_27" type="standard_car" route="N_S" depart="23.0" />    <vehicle id="E_W_28" type="standard_car" route="E_W" depart="24.0" />    <vehicle id="S_N_29" type="standard_car" route="S_N" depart="24.0" />    <vehicle id="N_S_30" type="standard_car" route="N_S" depart="25.0" />    <vehicle id="S_N_31" type="standard_car" route="S_N" depart="25.0" />    <vehicle id="E_W_32" type="standard_car" route="E_W" depart="25.0" />    <vehicle id="N_S_33" type="standard_car" route="N_S" depart="25.0" />    <vehicle id="N_S_34" type="standard_car" route="N_S" depart="26.0" />    <vehicle id="W_S_35" type="standard_car" route="W_S" depart="26.0" />    <vehicle id="E_W_36" type="standard_car" route="E_W" depart="26.0" />    <vehicle id="N_S_37" type="standard_car" route="N_S" depart="26.0" />    <vehicle id="E_W_38" type="standard_car" route="E_W" depart="26.0" />    <vehicle id="N_W_39" type="standard_car" route="N_W" depart="27.0" />    <vehicle id="W_E_40" type="standard_car" route="W_E" depart="27.0" />    <vehicle id="E_W_41" type="standard_car" route="E_W" depart="27.0" />    <vehicle id="W_E_42" type="standard_car" route="W_E" depart="28.0" />    <vehicle id="N_S_43" type="standard_car" route="N_S" depart="28.0" />    <vehicle id="N_E_44" type="standard_car" route="N_E" depart="28.0" />    <vehicle id="W_E_45" type="standard_car" route="W_E" depart="28.0" />    <vehicle id="S_E_46" type="standard_car" route="N_E" depart="28.0" />    <vehicle id="S_E_47" type="standard_car" route="N_E" depart="28.0" />    <vehicle id="N_S_48" type="standard_car" route="N_S" depart="28.0" />    <vehicle id="S_N_49" type="standard_car" route="S_N" depart="29.0" />    <vehicle id="W_E_50" type="standard_car" route="W_E" depart="29.0" />    <vehicle id="E_W_51" type="standard_car" route="E_W" depart="29.0" />    <vehicle id="S_N_52" type="standard_car" route="S_N" depart="29.0" />    <vehicle id="W_E_53" type="standard_car" route="W_E" depart="30.0" />    <vehicle id="W_E_54" type="standard_car" route="W_E" depart="30.0" />    <vehicle id="W_E_55" type="standard_car" route="W_E" depart="30.0" />    <vehicle id="N_S_56" type="standard_car" route="N_S" depart="31.0" />    <vehicle id="E_W_57" type="standard_car" route="E_W" depart="31.0" />    <vehicle id="N_S_58" type="standard_car" route="N_S" depart="32.0" />    <vehicle id="W_E_59" type="standard_car" route="W_E" depart="33.0" />    <vehicle id="N_S_60" type="standard_car" route="N_S" depart="33.0" />    <vehicle id="E_W_61" type="standard_car" route="E_W" depart="34.0" />    <vehicle id="S_N_62" type="standard_car" route="S_N" depart="34.0" />    <vehicle id="W_E_63" type="standard_car" route="W_E" depart="34.0" />    <vehicle id="N_S_64" type="standard_car" route="N_S" depart="34.0" />    <vehicle id="S_N_65" type="standard_car" route="S_N" depart="34.0" />    <vehicle id="E_W_66" type="standard_car" route="E_W" depart="34.0" />    <vehicle id="S_W_67" type="standard_car" route="S_W" depart="35.0" />    <vehicle id="W_N_68" type="standard_car" route="W_N" depart="35.0" />    <vehicle id="S_W_69" type="standard_car" route="S_W" depart="35.0" />    <vehicle id="W_E_70" type="standard_car" route="W_E" depart="36.0" />    <vehicle id="S_E_71" type="standard_car" route="N_E" depart="36.0" />    <vehicle id="N_S_72" type="standard_car" route="N_S" depart="36.0" />    <vehicle id="W_E_73" type="standard_car" route="W_E" depart="36.0" />    <vehicle id="E_W_74" type="standard_car" route="E_W" depart="36.0" />    <vehicle id="S_N_75" type="standard_car" route="S_N" depart="36.0" />    <vehicle id="E_W_76" type="standard_car" route="E_W" depart="36.0" />    <vehicle id="N_S_77" type="standard_car" route="N_S" depart="36.0" />    <vehicle id="N_S_78" type="standard_car" route="N_S" depart="36.0" />    <vehicle id="E_W_79" type="standard_car" route="E_W" depart="36.0" />    <vehicle id="S_E_80" type="standard_car" route="N_E" depart="37.0" />    <vehicle id="S_N_81" type="standard_car" route="S_N" depart="37.0" />    <vehicle id="S_N_82" type="standard_car" route="S_N" depart="37.0" />    <vehicle id="N_W_83" type="standard_car" route="N_W" depart="38.0" />    <vehicle id="W_S_84" type="standard_car" route="W_S" depart="38.0" />    <vehicle id="S_N_85" type="standard_car" route="S_N" depart="38.0" />    <vehicle id="W_S_86" type="standard_car" route="W_S" depart="38.0" />    <vehicle id="S_E_87" type="standard_car" route="N_E" depart="40.0" />    <vehicle id="W_E_88" type="standard_car" route="W_E" depart="40.0" />    <vehicle id="W_E_89" type="standard_car" route="W_E" depart="40.0" />    <vehicle id="W_E_90" type="standard_car" route="W_E" depart="40.0" />    <vehicle id="W_E_91" type="standard_car" route="W_E" depart="41.0" />    <vehicle id="E_W_92" type="standard_car" route="E_W" depart="41.0" />    <vehicle id="N_W_93" type="standard_car" route="N_W" depart="41.0" />    <vehicle id="S_N_94" type="standard_car" route="S_N" depart="41.0" />    <vehicle id="N_W_95" type="standard_car" route="N_W" depart="41.0" />    <vehicle id="W_N_96" type="standard_car" route="W_N" depart="42.0" />    <vehicle id="W_E_97" type="standard_car" route="W_E" depart="42.0" />    <vehicle id="E_W_98" type="standard_car" route="E_W" depart="42.0" />    <vehicle id="W_N_99" type="standard_car" route="W_N" depart="42.0" />    <vehicle id="E_W_100" type="standard_car" route="E_W" depart="43.0" />    <vehicle id="W_S_101" type="standard_car" route="W_S" depart="43.0" />    <vehicle id="S_N_102" type="standard_car" route="S_N" depart="43.0" />    <vehicle id="N_S_103" type="standard_car" route="N_S" depart="43.0" />    <vehicle id="S_N_104" type="standard_car" route="S_N" depart="44.0" />    <vehicle id="E_W_105" type="standard_car" route="E_W" depart="44.0" />    <vehicle id="N_S_106" type="standard_car" route="N_S" depart="44.0" />    <vehicle id="E_W_107" type="standard_car" route="E_W" depart="44.0" />    <vehicle id="N_S_108" type="standard_car" route="N_S" depart="44.0" />    <vehicle id="W_E_109" type="standard_car" route="W_E" depart="45.0" />    <vehicle id="W_E_110" type="standard_car" route="W_E" depart="45.0" />    <vehicle id="N_E_111" type="standard_car" route="N_E" depart="45.0" />    <vehicle id="S_N_112" type="standard_car" route="S_N" depart="45.0" />    <vehicle id="S_N_113" type="standard_car" route="S_N" depart="45.0" />    <vehicle id="W_E_114" type="standard_car" route="W_E" depart="46.0" />    <vehicle id="N_S_115" type="standard_car" route="N_S" depart="46.0" />    <vehicle id="S_N_116" type="standard_car" route="S_N" depart="46.0" />    <vehicle id="E_W_117" type="standard_car" route="E_W" depart="46.0" />    <vehicle id="S_N_118" type="standard_car" route="S_N" depart="46.0" />    <vehicle id="E_N_119" type="standard_car" route="E_N" depart="46.0" />    <vehicle id="E_W_120" type="standard_car" route="E_W" depart="46.0" />    <vehicle id="N_S_121" type="standard_car" route="N_S" depart="46.0" />    <vehicle id="N_W_122" type="standard_car" route="N_W" depart="47.0" />    <vehicle id="W_N_123" type="standard_car" route="W_N" depart="47.0" />    <vehicle id="W_E_124" type="standard_car" route="W_E" depart="48.0" />    <vehicle id="N_W_125" type="standard_car" route="N_W" depart="49.0" />    <vehicle id="S_N_126" type="standard_car" route="S_N" depart="50.0" />    <vehicle id="S_N_127" type="standard_car" route="S_N" depart="50.0" />    <vehicle id="N_E_128" type="standard_car" route="N_E" depart="50.0" />    <vehicle id="E_W_129" type="standard_car" route="E_W" depart="51.0" />    <vehicle id="S_N_130" type="standard_car" route="S_N" depart="51.0" />    <vehicle id="E_W_131" type="standard_car" route="E_W" depart="51.0" />    <vehicle id="N_S_132" type="standard_car" route="N_S" depart="51.0" />    <vehicle id="S_E_133" type="standard_car" route="N_E" depart="51.0" />    <vehicle id="N_S_134" type="standard_car" route="N_S" depart="51.0" />    <vehicle id="S_E_135" type="standard_car" route="N_E" depart="52.0" />    <vehicle id="S_N_136" type="standard_car" route="S_N" depart="52.0" />    <vehicle id="S_E_137" type="standard_car" route="N_E" depart="53.0" />    <vehicle id="W_N_138" type="standard_car" route="W_N" depart="53.0" />    <vehicle id="E_N_139" type="standard_car" route="E_N" depart="54.0" />    <vehicle id="E_N_140" type="standard_car" route="E_N" depart="54.0" />    <vehicle id="E_W_141" type="standard_car" route="E_W" depart="54.0" />    <vehicle id="N_E_142" type="standard_car" route="N_E" depart="54.0" />    <vehicle id="N_S_143" type="standard_car" route="N_S" depart="54.0" />    <vehicle id="W_E_144" type="standard_car" route="W_E" depart="54.0" />    <vehicle id="S_N_145" type="standard_car" route="S_N" depart="55.0" />    <vehicle id="E_N_146" type="standard_car" route="E_N" depart="56.0" />    <vehicle id="N_W_147" type="standard_car" route="N_W" depart="56.0" />    <vehicle id="N_S_148" type="standard_car" route="N_S" depart="56.0" />    <vehicle id="W_S_149" type="standard_car" route="W_S" depart="56.0" />    <vehicle id="E_N_150" type="standard_car" route="E_N" depart="56.0" />    <vehicle id="E_W_151" type="standard_car" route="E_W" depart="56.0" />    <vehicle id="S_N_152" type="standard_car" route="S_N" depart="57.0" />    <vehicle id="N_S_153" type="standard_car" route="N_S" depart="58.0" />    <vehicle id="E_W_154" type="standard_car" route="E_W" depart="58.0" />    <vehicle id="S_W_155" type="standard_car" route="S_W" depart="58.0" />    <vehicle id="N_S_156" type="standard_car" route="N_S" depart="58.0" />    <vehicle id="S_N_157" type="standard_car" route="S_N" depart="58.0" />    <vehicle id="W_N_158" type="standard_car" route="W_N" depart="58.0" />    <vehicle id="E_W_159" type="standard_car" route="E_W" depart="58.0" />    <vehicle id="N_W_160" type="standard_car" route="N_W" depart="59.0" />    <vehicle id="W_E_161" type="standard_car" route="W_E" depart="59.0" />    <vehicle id="E_W_162" type="standard_car" route="E_W" depart="59.0" />    <vehicle id="S_N_163" type="standard_car" route="S_N" depart="60.0" />    <vehicle id="W_E_164" type="standard_car" route="W_E" depart="60.0" />    <vehicle id="S_N_165" type="standard_car" route="S_N" depart="60.0" />    <vehicle id="E_W_166" type="standard_car" route="E_W" depart="60.0" />    <vehicle id="S_W_167" type="standard_car" route="S_W" depart="61.0" />    <vehicle id="S_N_168" type="standard_car" route="S_N" depart="61.0" />    <vehicle id="N_W_169" type="standard_car" route="N_W" depart="62.0" />    <vehicle id="S_N_170" type="standard_car" route="S_N" depart="62.0" />    <vehicle id="E_W_171" type="standard_car" route="E_W" depart="62.0" />    <vehicle id="W_E_172" type="standard_car" route="W_E" depart="62.0" />    <vehicle id="N_S_173" type="standard_car" route="N_S" depart="63.0" />    <vehicle id="S_N_174" type="standard_car" route="S_N" depart="63.0" />    <vehicle id="W_E_175" type="standard_car" route="W_E" depart="63.0" />    <vehicle id="S_N_176" type="standard_car" route="S_N" depart="63.0" />    <vehicle id="S_E_177" type="standard_car" route="N_E" depart="63.0" />    <vehicle id="S_N_178" type="standard_car" route="S_N" depart="63.0" />    <vehicle id="S_W_179" type="standard_car" route="S_W" depart="63.0" />    <vehicle id="S_E_180" type="standard_car" route="N_E" depart="63.0" />    <vehicle id="E_W_181" type="standard_car" route="E_W" depart="64.0" />    <vehicle id="E_N_182" type="standard_car" route="E_N" depart="64.0" />    <vehicle id="S_N_183" type="standard_car" route="S_N" depart="64.0" />    <vehicle id="N_S_184" type="standard_car" route="N_S" depart="64.0" />    <vehicle id="S_N_185" type="standard_car" route="S_N" depart="64.0" />    <vehicle id="S_N_186" type="standard_car" route="S_N" depart="64.0" />    <vehicle id="S_N_187" type="standard_car" route="S_N" depart="64.0" />    <vehicle id="W_E_188" type="standard_car" route="W_E" depart="64.0" />    <vehicle id="W_E_189" type="standard_car" route="W_E" depart="65.0" />    <vehicle id="E_W_190" type="standard_car" route="E_W" depart="65.0" />    <vehicle id="E_N_191" type="standard_car" route="E_N" depart="65.0" />    <vehicle id="W_S_192" type="standard_car" route="W_S" depart="66.0" />    <vehicle id="E_N_193" type="standard_car" route="E_N" depart="66.0" />    <vehicle id="N_S_194" type="standard_car" route="N_S" depart="66.0" />    <vehicle id="W_E_195" type="standard_car" route="W_E" depart="67.0" />    <vehicle id="E_W_196" type="standard_car" route="E_W" depart="67.0" />    <vehicle id="E_W_197" type="standard_car" route="E_W" depart="67.0" />    <vehicle id="N_W_198" type="standard_car" route="N_W" depart="67.0" />    <vehicle id="E_W_199" type="standard_car" route="E_W" depart="67.0" />    <vehicle id="N_S_200" type="standard_car" route="N_S" depart="67.0" />    <vehicle id="S_N_201" type="standard_car" route="S_N" depart="68.0" />    <vehicle id="E_W_202" type="standard_car" route="E_W" depart="68.0" />    <vehicle id="W_S_203" type="standard_car" route="W_S" depart="68.0" />    <vehicle id="E_W_204" type="standard_car" route="E_W" depart="68.0" />    <vehicle id="N_S_205" type="standard_car" route="N_S" depart="69.0" />    <vehicle id="S_W_206" type="standard_car" route="S_W" depart="69.0" />    <vehicle id="S_N_207" type="standard_car" route="S_N" depart="69.0" />    <vehicle id="E_S_208" type="standard_car" route="E_S" depart="69.0" />    <vehicle id="W_S_209" type="standard_car" route="W_S" depart="69.0" />    <vehicle id="W_E_210" type="standard_car" route="W_E" depart="69.0" />    <vehicle id="E_W_211" type="standard_car" route="E_W" depart="70.0" />    <vehicle id="W_N_212" type="standard_car" route="W_N" depart="70.0" />    <vehicle id="E_W_213" type="standard_car" route="E_W" depart="70.0" />    <vehicle id="W_E_214" type="standard_car" route="W_E" depart="70.0" />    <vehicle id="S_N_215" type="standard_car" route="S_N" depart="70.0" />    <vehicle id="E_N_216" type="standard_car" route="E_N" depart="71.0" />    <vehicle id="N_S_217" type="standard_car" route="N_S" depart="71.0" />    <vehicle id="S_N_218" type="standard_car" route="S_N" depart="71.0" />    <vehicle id="S_N_219" type="standard_car" route="S_N" depart="71.0" />    <vehicle id="N_S_220" type="standard_car" route="N_S" depart="72.0" />    <vehicle id="W_E_221" type="standard_car" route="W_E" depart="72.0" />    <vehicle id="W_E_222" type="standard_car" route="W_E" depart="72.0" />    <vehicle id="E_N_223" type="standard_car" route="E_N" depart="72.0" />    <vehicle id="W_N_224" type="standard_car" route="W_N" depart="72.0" />    <vehicle id="W_E_225" type="standard_car" route="W_E" depart="72.0" />    <vehicle id="S_N_226" type="standard_car" route="S_N" depart="72.0" />    <vehicle id="E_W_227" type="standard_car" route="E_W" depart="72.0" />    <vehicle id="N_W_228" type="standard_car" route="N_W" depart="73.0" />    <vehicle id="W_E_229" type="standard_car" route="W_E" depart="73.0" />    <vehicle id="E_S_230" type="standard_car" route="E_S" depart="73.0" />    <vehicle id="S_N_231" type="standard_car" route="S_N" depart="73.0" />    <vehicle id="W_E_232" type="standard_car" route="W_E" depart="73.0" />    <vehicle id="S_W_233" type="standard_car" route="S_W" depart="73.0" />    <vehicle id="E_S_234" type="standard_car" route="E_S" depart="74.0" />    <vehicle id="S_N_235" type="standard_car" route="S_N" depart="74.0" />    <vehicle id="N_S_236" type="standard_car" route="N_S" depart="75.0" />    <vehicle id="W_E_237" type="standard_car" route="W_E" depart="75.0" />    <vehicle id="W_E_238" type="standard_car" route="W_E" depart="75.0" />    <vehicle id="S_E_239" type="standard_car" route="N_E" depart="75.0" />    <vehicle id="E_W_240" type="standard_car" route="E_W" depart="75.0" />    <vehicle id="S_N_241" type="standard_car" route="S_N" depart="75.0" />    <vehicle id="N_S_242" type="standard_car" route="N_S" depart="76.0" />    <vehicle id="E_W_243" type="standard_car" route="E_W" depart="76.0" />    <vehicle id="E_W_244" type="standard_car" route="E_W" depart="76.0" />    <vehicle id="E_W_245" type="standard_car" route="E_W" depart="76.0" />    <vehicle id="S_N_246" type="standard_car" route="S_N" depart="76.0" />    <vehicle id="W_E_247" type="standard_car" route="W_E" depart="76.0" />    <vehicle id="W_E_248" type="standard_car" route="W_E" depart="76.0" />    <vehicle id="E_W_249" type="standard_car" route="E_W" depart="76.0" />    <vehicle id="E_W_250" type="standard_car" route="E_W" depart="76.0" />    <vehicle id="W_E_251" type="standard_car" route="W_E" depart="76.0" />    <vehicle id="E_W_252" type="standard_car" route="E_W" depart="76.0" />    <vehicle id="S_N_253" type="standard_car" route="S_N" depart="77.0" />    <vehicle id="E_W_254" type="standard_car" route="E_W" depart="77.0" />    <vehicle id="W_E_255" type="standard_car" route="W_E" depart="77.0" />    <vehicle id="W_E_256" type="standard_car" route="W_E" depart="77.0" />    <vehicle id="S_W_257" type="standard_car" route="S_W" depart="78.0" />    <vehicle id="E_W_258" type="standard_car" route="E_W" depart="78.0" />    <vehicle id="S_N_259" type="standard_car" route="S_N" depart="78.0" />    <vehicle id="N_W_260" type="standard_car" route="N_W" depart="79.0" />    <vehicle id="W_E_261" type="standard_car" route="W_E" depart="79.0" />    <vehicle id="N_S_262" type="standard_car" route="N_S" depart="79.0" />    <vehicle id="N_S_263" type="standard_car" route="N_S" depart="80.0" />    <vehicle id="S_N_264" type="standard_car" route="S_N" depart="80.0" />    <vehicle id="N_S_265" type="standard_car" route="N_S" depart="80.0" />    <vehicle id="W_E_266" type="standard_car" route="W_E" depart="80.0" />    <vehicle id="E_N_267" type="standard_car" route="E_N" depart="80.0" />    <vehicle id="E_W_268" type="standard_car" route="E_W" depart="80.0" />    <vehicle id="W_N_269" type="standard_car" route="W_N" depart="81.0" />    <vehicle id="E_W_270" type="standard_car" route="E_W" depart="81.0" />    <vehicle id="W_E_271" type="standard_car" route="W_E" depart="81.0" />    <vehicle id="E_W_272" type="standard_car" route="E_W" depart="81.0" />    <vehicle id="W_E_273" type="standard_car" route="W_E" depart="82.0" />    <vehicle id="E_W_274" type="standard_car" route="E_W" depart="82.0" />    <vehicle id="N_E_275" type="standard_car" route="N_E" depart="82.0" />    <vehicle id="E_W_276" type="standard_car" route="E_W" depart="82.0" />    <vehicle id="S_N_277" type="standard_car" route="S_N" depart="82.0" />    <vehicle id="W_E_278" type="standard_car" route="W_E" depart="82.0" />    <vehicle id="W_E_279" type="standard_car" route="W_E" depart="83.0" />    <vehicle id="N_S_280" type="standard_car" route="N_S" depart="83.0" />    <vehicle id="S_E_281" type="standard_car" route="N_E" depart="83.0" />    <vehicle id="E_W_282" type="standard_car" route="E_W" depart="83.0" />    <vehicle id="N_S_283" type="standard_car" route="N_S" depart="84.0" />    <vehicle id="E_W_284" type="standard_car" route="E_W" depart="84.0" />    <vehicle id="N_S_285" type="standard_car" route="N_S" depart="84.0" />    <vehicle id="N_S_286" type="standard_car" route="N_S" depart="84.0" />    <vehicle id="N_S_287" type="standard_car" route="N_S" depart="84.0" />    <vehicle id="N_E_288" type="standard_car" route="N_E" depart="85.0" />    <vehicle id="W_E_289" type="standard_car" route="W_E" depart="85.0" />    <vehicle id="W_N_290" type="standard_car" route="W_N" depart="85.0" />    <vehicle id="W_E_291" type="standard_car" route="W_E" depart="85.0" />    <vehicle id="E_W_292" type="standard_car" route="E_W" depart="85.0" />    <vehicle id="W_E_293" type="standard_car" route="W_E" depart="85.0" />    <vehicle id="E_S_294" type="standard_car" route="E_S" depart="85.0" />    <vehicle id="E_W_295" type="standard_car" route="E_W" depart="86.0" />    <vehicle id="S_E_296" type="standard_car" route="N_E" depart="86.0" />    <vehicle id="S_N_297" type="standard_car" route="S_N" depart="86.0" />    <vehicle id="N_S_298" type="standard_car" route="N_S" depart="87.0" />    <vehicle id="W_E_299" type="standard_car" route="W_E" depart="87.0" />    <vehicle id="W_S_300" type="standard_car" route="W_S" depart="87.0" />    <vehicle id="E_W_301" type="standard_car" route="E_W" depart="87.0" />    <vehicle id="S_N_302" type="standard_car" route="S_N" depart="88.0" />    <vehicle id="W_E_303" type="standard_car" route="W_E" depart="88.0" />    <vehicle id="N_S_304" type="standard_car" route="N_S" depart="88.0" />    <vehicle id="W_E_305" type="standard_car" route="W_E" depart="88.0" />    <vehicle id="S_N_306" type="standard_car" route="S_N" depart="89.0" />    <vehicle id="E_W_307" type="standard_car" route="E_W" depart="89.0" />    <vehicle id="N_S_308" type="standard_car" route="N_S" depart="89.0" />    <vehicle id="E_N_309" type="standard_car" route="E_N" depart="89.0" />    <vehicle id="W_E_310" type="standard_car" route="W_E" depart="89.0" />    <vehicle id="N_S_311" type="standard_car" route="N_S" depart="90.0" />    <vehicle id="W_E_312" type="standard_car" route="W_E" depart="90.0" />    <vehicle id="N_S_313" type="standard_car" route="N_S" depart="90.0" />    <vehicle id="W_E_314" type="standard_car" route="W_E" depart="90.0" />    <vehicle id="E_W_315" type="standard_car" route="E_W" depart="91.0" />    <vehicle id="N_S_316" type="standard_car" route="N_S" depart="91.0" />    <vehicle id="N_S_317" type="standard_car" route="N_S" depart="91.0" />    <vehicle id="S_E_318" type="standard_car" route="N_E" depart="91.0" />    <vehicle id="S_E_319" type="standard_car" route="N_E" depart="91.0" />    <vehicle id="S_E_320" type="standard_car" route="N_E" depart="92.0" />    <vehicle id="W_E_321" type="standard_car" route="W_E" depart="92.0" />    <vehicle id="S_W_322" type="standard_car" route="S_W" depart="92.0" />    <vehicle id="W_S_323" type="standard_car" route="W_S" depart="92.0" />    <vehicle id="W_E_324" type="standard_car" route="W_E" depart="92.0" />    <vehicle id="N_W_325" type="standard_car" route="N_W" depart="92.0" />    <vehicle id="E_N_326" type="standard_car" route="E_N" depart="92.0" />    <vehicle id="E_W_327" type="standard_car" route="E_W" depart="92.0" />    <vehicle id="S_N_328" type="standard_car" route="S_N" depart="92.0" />    <vehicle id="E_S_329" type="standard_car" route="E_S" depart="92.0" />    <vehicle id="W_E_330" type="standard_car" route="W_E" depart="93.0" />    <vehicle id="W_S_331" type="standard_car" route="W_S" depart="93.0" />    <vehicle id="N_S_332" type="standard_car" route="N_S" depart="93.0" />    <vehicle id="E_W_333" type="standard_car" route="E_W" depart="93.0" />    <vehicle id="W_S_334" type="standard_car" route="W_S" depart="94.0" />    <vehicle id="W_E_335" type="standard_car" route="W_E" depart="94.0" />    <vehicle id="N_W_336" type="standard_car" route="N_W" depart="94.0" />    <vehicle id="S_N_337" type="standard_car" route="S_N" depart="94.0" />    <vehicle id="S_N_338" type="standard_car" route="S_N" depart="94.0" />    <vehicle id="W_E_339" type="standard_car" route="W_E" depart="94.0" />    <vehicle id="E_N_340" type="standard_car" route="E_N" depart="95.0" />    <vehicle id="S_N_341" type="standard_car" route="S_N" depart="95.0" />    <vehicle id="W_N_342" type="standard_car" route="W_N" depart="95.0" />    <vehicle id="N_W_343" type="standard_car" route="N_W" depart="95.0" />    <vehicle id="W_E_344" type="standard_car" route="W_E" depart="96.0" />    <vehicle id="W_E_345" type="standard_car" route="W_E" depart="96.0" />    <vehicle id="N_S_346" type="standard_car" route="N_S" depart="96.0" />    <vehicle id="S_N_347" type="standard_car" route="S_N" depart="96.0" />    <vehicle id="N_S_348" type="standard_car" route="N_S" depart="97.0" />    <vehicle id="W_E_349" type="standard_car" route="W_E" depart="97.0" />    <vehicle id="S_W_350" type="standard_car" route="S_W" depart="97.0" />    <vehicle id="W_E_351" type="standard_car" route="W_E" depart="97.0" />    <vehicle id="S_N_352" type="standard_car" route="S_N" depart="97.0" />    <vehicle id="E_W_353" type="standard_car" route="E_W" depart="98.0" />    <vehicle id="E_W_354" type="standard_car" route="E_W" depart="98.0" />    <vehicle id="S_N_355" type="standard_car" route="S_N" depart="98.0" />    <vehicle id="W_S_356" type="standard_car" route="W_S" depart="99.0" />    <vehicle id="W_N_357" type="standard_car" route="W_N" depart="99.0" />    <vehicle id="E_S_358" type="standard_car" route="E_S" depart="99.0" />    <vehicle id="N_S_359" type="standard_car" route="N_S" depart="99.0" />    <vehicle id="E_W_360" type="standard_car" route="E_W" depart="99.0" />    <vehicle id="E_W_361" type="standard_car" route="E_W" depart="99.0" />    <vehicle id="S_N_362" type="standard_car" route="S_N" depart="99.0" />    <vehicle id="N_S_363" type="standard_car" route="N_S" depart="100.0" />    <vehicle id="S_N_364" type="standard_car" route="S_N" depart="100.0" />    <vehicle id="S_N_365" type="standard_car" route="S_N" depart="101.0" />    <vehicle id="W_N_366" type="standard_car" route="W_N" depart="101.0" />    <vehicle id="W_N_367" type="standard_car" route="W_N" depart="101.0" />    <vehicle id="S_N_368" type="standard_car" route="S_N" depart="101.0" />    <vehicle id="N_S_369" type="standard_car" route="N_S" depart="101.0" />    <vehicle id="E_N_370" type="standard_car" route="E_N" depart="101.0" />    <vehicle id="S_N_371" type="standard_car" route="S_N" depart="101.0" />    <vehicle id="E_W_372" type="standard_car" route="E_W" depart="101.0" />    <vehicle id="S_N_373" type="standard_car" route="S_N" depart="101.0" />    <vehicle id="S_W_374" type="standard_car" route="S_W" depart="101.0" />    <vehicle id="N_S_375" type="standard_car" route="N_S" depart="102.0" />    <vehicle id="N_S_376" type="standard_car" route="N_S" depart="102.0" />    <vehicle id="W_E_377" type="standard_car" route="W_E" depart="102.0" />    <vehicle id="N_W_378" type="standard_car" route="N_W" depart="103.0" />    <vehicle id="S_W_379" type="standard_car" route="S_W" depart="103.0" />    <vehicle id="S_E_380" type="standard_car" route="N_E" depart="103.0" />    <vehicle id="E_N_381" type="standard_car" route="E_N" depart="103.0" />    <vehicle id="W_E_382" type="standard_car" route="W_E" depart="104.0" />    <vehicle id="S_E_383" type="standard_car" route="N_E" depart="104.0" />    <vehicle id="S_N_384" type="standard_car" route="S_N" depart="104.0" />    <vehicle id="W_E_385" type="standard_car" route="W_E" depart="104.0" />    <vehicle id="N_S_386" type="standard_car" route="N_S" depart="105.0" />    <vehicle id="W_E_387" type="standard_car" route="W_E" depart="105.0" />    <vehicle id="W_E_388" type="standard_car" route="W_E" depart="105.0" />    <vehicle id="N_S_389" type="standard_car" route="N_S" depart="105.0" />    <vehicle id="S_N_390" type="standard_car" route="S_N" depart="106.0" />    <vehicle id="E_N_391" type="standard_car" route="E_N" depart="106.0" />    <vehicle id="E_N_392" type="standard_car" route="E_N" depart="106.0" />    <vehicle id="W_E_393" type="standard_car" route="W_E" depart="106.0" />    <vehicle id="N_S_394" type="standard_car" route="N_S" depart="106.0" />    <vehicle id="S_N_395" type="standard_car" route="S_N" depart="107.0" />    <vehicle id="N_S_396" type="standard_car" route="N_S" depart="107.0" />    <vehicle id="E_W_397" type="standard_car" route="E_W" depart="107.0" />    <vehicle id="S_N_398" type