<routes>
    <vType accel="1.0" decel="4.5" id="standard_car" length="5.0" minGap="2.5" maxSpeed="25" sigma="0.5" />

    <route id="W_N" edges="W2TL TL2N"/>
    <route id="W_E" edges="W2TL TL2E"/>
    <route id="W_S" edges="W2TL TL2S"/>
    <route id="N_W" edges="N2TL TL2W"/>
    <route id="N_E" edges="N2TL TL2E"/>
    <route id="N_S" edges="N2TL TL2S"/>
    <route id="E_W" edges="E2TL TL2W"/>
    <route id="E_N" edges="E2TL TL2N"/>
    <route id="E_S" edges="E2TL TL2S"/>
    <route id="S_W" edges="S2TL TL2W"/>
    <route id="S_N" edges="S2TL TL2N"/>
    <route id="S_E" edges="S2TL TL2E"/>    <vehicle id="N_S_0" type="standard_car" route="N_S" depart="4.0" />    <vehicle id="S_W_1" type="standard_car" route="S_W" depart="14.0" />    <vehicle id="N_S_2" type="standard_car" route="N_S" depart="44.0" />    <vehicle id="N_S_3" type="standard_car" route="N_S" depart="46.0" />    <vehicle id="S_N_4" type="standard_car" route="S_N" depart="47.0" />    <vehicle id="N_S_5" type="standard_car" route="N_S" depart="68.0" />    <vehicle id="N_S_6" type="standard_car" route="N_S" depart="74.0" />    <vehicle id="S_N_7" type="standard_car" route="S_N" depart="79.0" />    <vehicle id="N_S_8" type="standard_car" route="N_S" depart="82.0" />    <vehicle id="S_E_9" type="standard_car" route="N_E" depart="84.0" />    <vehicle id="S_N_10" type="standard_car" route="S_N" depart="85.0" />    <vehicle id="W_E_11" type="standard_car" route="W_E" depart="87.0" />    <vehicle id="S_N_12" type="standard_car" route="S_N" depart="89.0" />    <vehicle id="S_N_13" type="standard_car" route="S_N" depart="89.0" />    <vehicle id="N_S_14" type="standard_car" route="N_S" depart="91.0" />    <vehicle id="S_N_15" type="standard_car" route="S_N" depart="96.0" />    <vehicle id="N_S_16" type="standard_car" route="N_S" depart="100.0" />    <vehicle id="S_N_17" type="standard_car" route="S_N" depart="105.0" />    <vehicle id="N_S_18" type="standard_car" route="N_S" depart="105.0" />    <vehicle id="S_N_19" type="standard_car" route="S_N" depart="106.0" />    <vehicle id="N_S_20" type="standard_car" route="N_S" depart="113.0" />    <vehicle id="N_S_21" type="standard_car" route="N_S" depart="114.0" />    <vehicle id="S_N_22" type="standard_car" route="S_N" depart="115.0" />    <vehicle id="S_E_23" type="standard_car" route="N_E" depart="116.0" />    <vehicle id="N_S_24" type="standard_car" route="N_S" depart="119.0" />    <vehicle id="E_W_25" type="standard_car" route="E_W" depart="120.0" />    <vehicle id="N_E_26" type="standard_car" route="N_E" depart="121.0" />    <vehicle id="S_N_27" type="standard_car" route="S_N" depart="125.0" />    <vehicle id="N_S_28" type="standard_car" route="N_S" depart="126.0" />    <vehicle id="S_N_29" type="standard_car" route="S_N" depart="126.0" />    <vehicle id="N_S_30" type="standard_car" route="N_S" depart="128.0" />    <vehicle id="S_N_31" type="standard_car" route="S_N" depart="129.0" />    <vehicle id="N_S_32" type="standard_car" route="N_S" depart="130.0" />    <vehicle id="W_E_33" type="standard_car" route="W_E" depart="130.0" />    <vehicle id="N_S_34" type="standard_car" route="N_S" depart="132.0" />    <vehicle id="N_S_35" type="standard_car" route="N_S" depart="132.0" />    <vehicle id="S_N_36" type="standard_car" route="S_N" depart="133.0" />    <vehicle id="S_W_37" type="standard_car" route="S_W" depart="133.0" />    <vehicle id="S_N_38" type="standard_car" route="S_N" depart="134.0" />    <vehicle id="W_E_39" type="standard_car" route="W_E" depart="135.0" />    <vehicle id="E_W_40" type="standard_car" route="E_W" depart="137.0" />    <vehicle id="S_N_41" type="standard_car" route="S_N" depart="138.0" />    <vehicle id="N_S_42" type="standard_car" route="N_S" depart="144.0" />    <vehicle id="S_E_43" type="standard_car" route="N_E" depart="144.0" />    <vehicle id="S_N_44" type="standard_car" route="S_N" depart="145.0" />    <vehicle id="S_N_45" type="standard_car" route="S_N" depart="146.0" />    <vehicle id="S_N_46" type="standard_car" route="S_N" depart="150.0" />    <vehicle id="N_S_47" type="standard_car" route="N_S" depart="155.0" />    <vehicle id="N_W_48" type="standard_car" route="N_W" depart="157.0" />    <vehicle id="N_W_49" type="standard_car" route="N_W" depart="160.0" />    <vehicle id="S_N_50" type="standard_car" route="S_N" depart="161.0" />    <vehicle id="N_W_51" type="standard_car" route="N_W" depart="162.0" />    <vehicle id="S_N_52" type="standard_car" route="S_N" depart="162.0" />    <vehicle id="N_S_53" type="standard_car" route="N_S" depart="163.0" />    <vehicle id="S_E_54" type="standard_car" route="N_E" depart="163.0" />    <vehicle id="N_E_55" type="standard_car" route="N_E" depart="163.0" />    <vehicle id="N_W_56" type="standard_car" route="N_W" depart="167.0" />    <vehicle id="N_S_57" type="standard_car" route="N_S" depart="167.0" />    <vehicle id="S_W_58" type="standard_car" route="S_W" depart="168.0" />    <vehicle id="N_S_59" type="standard_car" route="N_S" depart="169.0" />    <vehicle id="N_S_60" type="standard_car" route="N_S" depart="171.0" />    <vehicle id="N_S_61" type="standard_car" route="N_S" depart="173.0" />    <vehicle id="S_N_62" type="standard_car" route="S_N" depart="175.0" />    <vehicle id="N_S_63" type="standard_car" route="N_S" depart="176.0" />    <vehicle id="N_S_64" type="standard_car" route="N_S" depart="178.0" />    <vehicle id="N_S_65" type="standard_car" route="N_S" depart="179.0" />    <vehicle id="N_S_66" type="standard_car" route="N_S" depart="181.0" />    <vehicle id="S_N_67" type="standard_car" route="S_N" depart="184.0" />    <vehicle id="N_S_68" type="standard_car" route="N_S" depart="184.0" />    <vehicle id="N_E_69" type="standard_car" route="N_E" depart="185.0" />    <vehicle id="N_S_70" type="standard_car" route="N_S" depart="186.0" />    <vehicle id="S_N_71" type="standard_car" route="S_N" depart="188.0" />    <vehicle id="N_S_72" type="standard_car" route="N_S" depart="188.0" />    <vehicle id="N_E_73" type="standard_car" route="N_E" depart="189.0" />    <vehicle id="N_W_74" type="standard_car" route="N_W" depart="189.0" />    <vehicle id="S_W_75" type="standard_car" route="S_W" depart="192.0" />    <vehicle id="S_N_76" type="standard_car" route="S_N" depart="192.0" />    <vehicle id="S_N_77" type="standard_car" route="S_N" depart="192.0" />    <vehicle id="S_N_78" type="standard_car" route="S_N" depart="193.0" />    <vehicle id="N_S_79" type="standard_car" route="N_S" depart="193.0" />    <vehicle id="S_N_80" type="standard_car" route="S_N" depart="193.0" />    <vehicle id="N_S_81" type="standard_car" route="N_S" depart="194.0" />    <vehicle id="E_S_82" type="standard_car" route="E_S" depart="196.0" />    <vehicle id="N_S_83" type="standard_car" route="N_S" depart="196.0" />    <vehicle id="N_W_84" type="standard_car" route="N_W" depart="197.0" />    <vehicle id="S_N_85" type="standard_car" route="S_N" depart="197.0" />    <vehicle id="S_W_86" type="standard_car" route="S_W" depart="199.0" />    <vehicle id="S_N_87" type="standard_car" route="S_N" depart="199.0" />    <vehicle id="S_N_88" type="standard_car" route="S_N" depart="201.0" />    <vehicle id="W_E_89" type="standard_car" route="W_E" depart="205.0" />    <vehicle id="N_S_90" type="standard_car" route="N_S" depart="206.0" />    <vehicle id="N_S_91" type="standard_car" route="N_S" depart="207.0" />    <vehicle id="N_W_92" type="standard_car" route="N_W" depart="209.0" />    <vehicle id="S_N_93" type="standard_car" route="S_N" depart="211.0" />    <vehicle id="S_N_94" type="standard_car" route="S_N" depart="211.0" />    <vehicle id="N_S_95" type="standard_car" route="N_S" depart="212.0" />    <vehicle id="S_E_96" type="standard_car" route="N_E" depart="213.0" />    <vehicle id="N_E_97" type="standard_car" route="N_E" depart="213.0" />    <vehicle id="S_N_98" type="standard_car" route="S_N" depart="214.0" />    <vehicle id="N_S_99" type="standard_car" route="N_S" depart="214.0" />    <vehicle id="S_N_100" type="standard_car" route="S_N" depart="215.0" />    <vehicle id="S_N_101" type="standard_car" route="S_N" depart="218.0" />    <vehicle id="S_N_102" type="standard_car" route="S_N" depart="220.0" />    <vehicle id="S_N_103" type="standard_car" route="S_N" depart="221.0" />    <vehicle id="N_W_104" type="standard_car" route="N_W" depart="222.0" />    <vehicle id="S_W_105" type="standard_car" route="S_W" depart="222.0" />    <vehicle id="S_N_106" type="standard_car" route="S_N" depart="223.0" />    <vehicle id="S_E_107" type="standard_car" route="N_E" depart="224.0" />    <vehicle id="N_S_108" type="standard_car" route="N_S" depart="225.0" />    <vehicle id="N_S_109" type="standard_car" route="N_S" depart="228.0" />    <vehicle id="S_E_110" type="standard_car" route="N_E" depart="230.0" />    <vehicle id="N_E_111" type="standard_car" route="N_E" depart="230.0" />    <vehicle id="S_E_112" type="standard_car" route="N_E" depart="230.0" />    <vehicle id="S_N_113" type="standard_car" route="S_N" depart="232.0" />    <vehicle id="N_S_114" type="standard_car" route="N_S" depart="232.0" />    <vehicle id="W_N_115" type="standard_car" route="W_N" depart="232.0" />    <vehicle id="E_N_116" type="standard_car" route="E_N" depart="232.0" />    <vehicle id="S_N_117" type="standard_car" route="S_N" depart="233.0" />    <vehicle id="S_N_118" type="standard_car" route="S_N" depart="233.0" />    <vehicle id="N_S_119" type="standard_car" route="N_S" depart="234.0" />    <vehicle id="S_E_120" type="standard_car" route="N_E" depart="235.0" />    <vehicle id="N_S_121" type="standard_car" route="N_S" depart="238.0" />    <vehicle id="S_N_122" type="standard_car" route="S_N" depart="239.0" />    <vehicle id="S_N_123" type="standard_car" route="S_N" depart="239.0" />    <vehicle id="N_S_124" type="standard_car" route="N_S" depart="240.0" />    <vehicle id="S_E_125" type="standard_car" route="N_E" depart="240.0" />    <vehicle id="S_N_126" type="standard_car" route="S_N" depart="241.0" />    <vehicle id="N_S_127" type="standard_car" route="N_S" depart="241.0" />    <vehicle id="N_S_128" type="standard_car" route="N_S" depart="241.0" />    <vehicle id="N_S_129" type="standard_car" route="N_S" depart="243.0" />    <vehicle id="S_N_130" type="standard_car" route="S_N" depart="245.0" />    <vehicle id="N_W_131" type="standard_car" route="N_W" depart="245.0" />    <vehicle id="N_S_132" type="standard_car" route="N_S" depart="245.0" />    <vehicle id="N_S_133" type="standard_car" route="N_S" depart="247.0" />    <vehicle id="S_N_134" type="standard_car" route="S_N" depart="248.0" />    <vehicle id="N_S_135" type="standard_car" route="N_S" depart="248.0" />    <vehicle id="N_E_136" type="standard_car" route="N_E" depart="249.0" />    <vehicle id="N_E_137" type="standard_car" route="N_E" depart="249.0" />    <vehicle id="S_E_138" type="standard_car" route="N_E" depart="250.0" />    <vehicle id="N_S_139" type="standard_car" route="N_S" depart="252.0" />    <vehicle id="S_N_140" type="standard_car" route="S_N" depart="252.0" />    <vehicle id="S_N_141" type="standard_car" route="S_N" depart="253.0" />    <vehicle id="S_E_142" type="standard_car" route="N_E" depart="254.0" />    <vehicle id="N_W_143" type="standard_car" route="N_W" depart="254.0" />    <vehicle id="S_E_144" type="standard_car" route="N_E" depart="257.0" />    <vehicle id="S_E_145" type="standard_car" route="N_E" depart="258.0" />    <vehicle id="E_W_146" type="standard_car" route="E_W" depart="258.0" />    <vehicle id="N_E_147" type="standard_car" route="N_E" depart="258.0" />    <vehicle id="N_S_148" type="standard_car" route="N_S" depart="259.0" />    <vehicle id="W_E_149" type="standard_car" route="W_E" depart="259.0" />    <vehicle id="E_W_150" type="standard_car" route="E_W" depart="260.0" />    <vehicle id="N_S_151" type="standard_car" route="N_S" depart="260.0" />    <vehicle id="N_S_152" type="standard_car" route="N_S" depart="262.0" />    <vehicle id="N_W_153" type="standard_car" route="N_W" depart="263.0" />    <vehicle id="S_N_154" type="standard_car" route="S_N" depart="263.0" />    <vehicle id="S_E_155" type="standard_car" route="N_E" depart="267.0" />    <vehicle id="N_S_156" type="standard_car" route="N_S" depart="267.0" />    <vehicle id="N_S_157" type="standard_car" route="N_S" depart="267.0" />    <vehicle id="S_N_158" type="standard_car" route="S_N" depart="272.0" />    <vehicle id="N_S_159" type="standard_car" route="N_S" depart="272.0" />    <vehicle id="N_S_160" type="standard_car" route="N_S" depart="275.0" />    <vehicle id="N_S_161" type="standard_car" route="N_S" depart="276.0" />    <vehicle id="S_N_162" type="standard_car" route="S_N" depart="276.0" />    <vehicle id="S_N_163" type="standard_car" route="S_N" depart="276.0" />    <vehicle id="N_E_164" type="standard_car" route="N_E" depart="276.0" />    <vehicle id="S_N_165" type="standard_car" route="S_N" depart="277.0" />    <vehicle id="N_E_166" type="standard_car" route="N_E" depart="277.0" />    <vehicle id="N_S_167" type="standard_car" route="N_S" depart="277.0" />    <vehicle id="S_N_168" type="standard_car" route="S_N" depart="278.0" />    <vehicle id="S_N_169" type="standard_car" route="S_N" depart="278.0" />    <vehicle id="S_N_170" type="standard_car" route="S_N" depart="284.0" />    <vehicle id="N_S_171" type="standard_car" route="N_S" depart="284.0" />    <vehicle id="N_S_172" type="standard_car" route="N_S" depart="285.0" />    <vehicle id="E_W_173" type="standard_car" route="E_W" depart="289.0" />    <vehicle id="N_E_174" type="standard_car" route="N_E" depart="289.0" />    <vehicle id="E_W_175" type="standard_car" route="E_W" depart="291.0" />    <vehicle id="S_N_176" type="standard_car" route="S_N" depart="291.0" />    <vehicle id="N_W_177" type="standard_car" route="N_W" depart="292.0" />    <vehicle id="N_W_178" type="standard_car" route="N_W" depart="292.0" />    <vehicle id="N_S_179" type="standard_car" route="N_S" depart="293.0" />    <vehicle id="S_W_180" type="standard_car" route="S_W" depart="293.0" />    <vehicle id="N_S_181" type="standard_car" route="N_S" depart="293.0" />    <vehicle id="N_S_182" type="standard_car" route="N_S" depart="294.0" />    <vehicle id="S_E_183" type="standard_car" route="N_E" depart="294.0" />    <vehicle id="N_E_184" type="standard_car" route="N_E" depart="294.0" />    <vehicle id="S_N_185" type="standard_car" route="S_N" depart="295.0" />    <vehicle id="N_S_186" type="standard_car" route="N_S" depart="297.0" />    <vehicle id="S_W_187" type="standard_car" route="S_W" depart="299.0" />    <vehicle id="E_W_188" type="standard_car" route="E_W" depart="299.0" />    <vehicle id="N_S_189" type="standard_car" route="N_S" depart="299.0" />    <vehicle id="N_S_190" type="standard_car" route="N_S" depart="301.0" />    <vehicle id="S_E_191" type="standard_car" route="N_E" depart="302.0" />    <vehicle id="S_N_192" type="standard_car" route="S_N" depart="304.0" />    <vehicle id="N_E_193" type="standard_car" route="N_E" depart="304.0" />    <vehicle id="N_S_194" type="standard_car" route="N_S" depart="304.0" />    <vehicle id="S_N_195" type="standard_car" route="S_N" depart="305.0" />    <vehicle id="N_W_196" type="standard_car" route="N_W" depart="305.0" />    <vehicle id="N_S_197" type="standard_car" route="N_S" depart="305.0" />    <vehicle id="N_S_198" type="standard_car" route="N_S" depart="307.0" />    <vehicle id="S_N_199" type="standard_car" route="S_N" depart="308.0" />    <vehicle id="N_S_200" type="standard_car" route="N_S" depart="308.0" />    <vehicle id="S_N_201" type="standard_car" route="S_N" depart="309.0" />    <vehicle id="S_N_202" type="standard_car" route="S_N" depart="311.0" />    <vehicle id="N_S_203" type="standard_car" route="N_S" depart="311.0" />    <vehicle id="S_E_204" type="standard_car" route="N_E" depart="312.0" />    <vehicle id="N_S_205" type="standard_car" route="N_S" depart="312.0" />    <vehicle id="E_S_206" type="standard_car" route="E_S" depart="312.0" />    <vehicle id="N_S_207" type="standard_car" route="N_S" depart="313.0" />    <vehicle id="N_S_208" type="standard_car" route="N_S" depart="313.0" />    <vehicle id="W_E_209" type="standard_car" route="W_E" depart="314.0" />    <vehicle id="S_N_210" type="standard_car" route="S_N" depart="315.0" />    <vehicle id="N_S_211" type="standard_car" route="N_S" depart="315.0" />    <vehicle id="S_E_212" type="standard_car" route="N_E" depart="315.0" />    <vehicle id="S_W_213" type="standard_car" route="S_W" depart="316.0" />    <vehicle id="S_W_214" type="standard_car" route="S_W" depart="317.0" />    <vehicle id="N_S_215" type="standard_car" route="N_S" depart="318.0" />    <vehicle id="N_S_216" type="standard_car" route="N_S" depart="318.0" />    <vehicle id="S_E_217" type="standard_car" route="N_E" depart="318.0" />    <vehicle id="N_S_218" type="standard_car" route="N_S" depart="319.0" />    <vehicle id="S_N_219" type="standard_car" route="S_N" depart="321.0" />    <vehicle id="W_E_220" type="standard_car" route="W_E" depart="321.0" />    <vehicle id="N_S_221" type="standard_car" route="N_S" depart="322.0" />    <vehicle id="S_N_222" type="standard_car" route="S_N" depart="322.0" />    <vehicle id="W_E_223" type="standard_car" route="W_E" depart="322.0" />    <vehicle id="S_W_224" type="standard_car" route="S_W" depart="325.0" />    <vehicle id="S_N_225" type="standard_car" route="S_N" depart="325.0" />    <vehicle id="S_N_226" type="standard_car" route="S_N" depart="326.0" />    <vehicle id="N_S_227" type="standard_car" route="N_S" depart="326.0" />    <vehicle id="N_S_228" type="standard_car" route="N_S" depart="326.0" />    <vehicle id="S_N_229" type="standard_car" route="S_N" depart="326.0" />    <vehicle id="S_W_230" type="standard_car" route="S_W" depart="327.0" />    <vehicle id="S_N_231" type="standard_car" route="S_N" depart="327.0" />    <vehicle id="N_S_232" type="standard_car" route="N_S" depart="328.0" />    <vehicle id="S_N_233" type="standard_car" route="S_N" depart="328.0" />    <vehicle id="N_S_234" type="standard_car" route="N_S" depart="329.0" />    <vehicle id="N_S_235" type="standard_car" route="N_S" depart="329.0" />    <vehicle id="S_N_236" type="standard_car" route="S_N" depart="330.0" />    <vehicle id="S_N_237" type="standard_car" route="S_N" depart="330.0" />    <vehicle id="N_S_238" type="standard_car" route="N_S" depart="331.0" />    <vehicle id="N_S_239" type="standard_car" route="N_S" depart="331.0" />    <vehicle id="N_S_240" type="standard_car" route="N_S" depart="332.0" />    <vehicle id="S_N_241" type="standard_car" route="S_N" depart="332.0" />    <vehicle id="N_S_242" type="standard_car" route="N_S" depart="333.0" />    <vehicle id="S_N_243" type="standard_car" route="S_N" depart="334.0" />    <vehicle id="N_S_244" type="standard_car" route="N_S" depart="335.0" />    <vehicle id="W_E_245" type="standard_car" route="W_E" depart="336.0" />    <vehicle id="N_S_246" type="standard_car" route="N_S" depart="337.0" />    <vehicle id="S_N_247" type="standard_car" route="S_N" depart="338.0" />    <vehicle id="N_S_248" type="standard_car" route="N_S" depart="338.0" />    <vehicle id="S_N_249" type="standard_car" route="S_N" depart="339.0" />    <vehicle id="S_N_250" type="standard_car" route="S_N" depart="340.0" />    <vehicle id="S_N_251" type="standard_car" route="S_N" depart="340.0" />    <vehicle id="S_E_252" type="standard_car" route="N_E" depart="340.0" />    <vehicle id="N_S_253" type="standard_car" route="N_S" depart="341.0" />    <vehicle id="S_N_254" type="standard_car" route="S_N" depart="341.0" />    <vehicle id="N_E_255" type="standard_car" route="N_E" depart="343.0" />    <vehicle id="S_N_256" type="standard_car" route="S_N" depart="343.0" />    <vehicle id="S_N_257" type="standard_car" route="S_N" depart="343.0" />    <vehicle id="N_S_258" type="standard_car" route="N_S" depart="344.0" />    <vehicle id="W_E_259" type="standard_car" route="W_E" depart="345.0" />    <vehicle id="N_S_260" type="standard_car" route="N_S" depart="345.0" />    <vehicle id="N_S_261" type="standard_car" route="N_S" depart="347.0" />    <vehicle id="S_N_262" type="standard_car" route="S_N" depart="347.0" />    <vehicle id="S_N_263" type="standard_car" route="S_N" depart="347.0" />    <vehicle id="S_W_264" type="standard_car" route="S_W" depart="348.0" />    <vehicle id="N_S_265" type="standard_car" route="N_S" depart="349.0" />    <vehicle id="N_S_266" type="standard_car" route="N_S" depart="349.0" />    <vehicle id="E_W_267" type="standard_car" route="E_W" depart="350.0" />    <vehicle id="S_N_268" type="standard_car" route="S_N" depart="350.0" />    <vehicle id="N_S_269" type="standard_car" route="N_S" depart="350.0" />    <vehicle id="S_N_270" type="standard_car" route="S_N" depart="350.0" />    <vehicle id="S_N_271" type="standard_car" route="S_N" depart="351.0" />    <vehicle id="S_E_272" type="standard_car" route="N_E" depart="352.0" />    <vehicle id="S_N_273" type="standard_car" route="S_N" depart="353.0" />    <vehicle id="N_S_274" type="standard_car" route="N_S" depart="354.0" />    <vehicle id="E_W_275" type="standard_car" route="E_W" depart="354.0" />    <vehicle id="S_N_276" type="standard_car" route="S_N" depart="356.0" />    <vehicle id="N_S_277" type="standard_car" route="N_S" depart="356.0" />    <vehicle id="S_N_278" type="standard_car" route="S_N" depart="357.0" />    <vehicle id="N_S_279" type="standard_car" route="N_S" depart="357.0" />    <vehicle id="S_E_280" type="standard_car" route="N_E" depart="358.0" />    <vehicle id="N_S_281" type="standard_car" route="N_S" depart="358.0" />    <vehicle id="S_N_282" type="standard_car" route="S_N" depart="359.0" />    <vehicle id="S_N_283" type="standard_car" route="S_N" depart="359.0" />    <vehicle id="N_S_284" type="standard_car" route="N_S" depart="362.0" />    <vehicle id="N_S_285" type="standard_car" route="N_S" depart="362.0" />    <vehicle id="S_E_286" type="standard_car" route="N_E" depart="362.0" />    <vehicle id="N_S_287" type="standard_car" route="N_S" depart="363.0" />    <vehicle id="N_S_288" type="standard_car" route="N_S" depart="364.0" />    <vehicle id="N_S_289" type="standard_car" route="N_S" depart="365.0" />    <vehicle id="S_N_290" type="standard_car" route="S_N" depart="366.0" />    <vehicle id="S_N_291" type="standard_car" route="S_N" depart="366.0" />    <vehicle id="S_N_292" type="standard_car" route="S_N" depart="366.0" />    <vehicle id="S_N_293" type="standard_car" route="S_N" depart="367.0" />    <vehicle id="N_S_294" type="standard_car" route="N_S" depart="367.0" />    <vehicle id="S_N_295" type="standard_car" route="S_N" depart="367.0" />    <vehicle id="N_W_296" type="standard_car" route="N_W" depart="369.0" />    <vehicle id="S_N_297" type="standard_car" route="S_N" depart="371.0" />    <vehicle id="N_S_298" type="standard_car" route="N_S" depart="371.0" />    <vehicle id="S_N_299" type="standard_car" route="S_N" depart="372.0" />    <vehicle id="S_W_300" type="standard_car" route="S_W" depart="372.0" />    <vehicle id="S_N_301" type="standard_car" route="S_N" depart="375.0" />    <vehicle id="S_N_302" type="standard_car" route="S_N" depart="375.0" />    <vehicle id="S_N_303" type="standard_car" route="S_N" depart="376.0" />    <vehicle id="S_E_304" type="standard_car" route="N_E" depart="377.0" />    <vehicle id="W_E_305" type="standard_car" route="W_E" depart="377.0" />    <vehicle id="S_N_306" type="standard_car" route="S_N" depart="377.0" />    <vehicle id="N_S_307" type="standard_car" route="N_S" depart="378.0" />    <vehicle id="S_E_308" type="standard_car" route="N_E" depart="380.0" />    <vehicle id="S_N_309" type="standard_car" route="S_N" depart="380.0" />    <vehicle id="S_N_310" type="standard_car" route="S_N" depart="381.0" />    <vehicle id="S_N_311" type="standard_car" route="S_N" depart="382.0" />    <vehicle id="W_E_312" type="standard_car" route="W_E" depart="383.0" />    <vehicle id="S_N_313" type="standard_car" route="S_N" depart="384.0" />    <vehicle id="N_S_314" type="standard_car" route="N_S" depart="385.0" />    <vehicle id="S_N_315" type="standard_car" route="S_N" depart="385.0" />    <vehicle id="S_E_316" type="standard_car" route="N_E" depart="386.0" />    <vehicle id="N_S_317" type="standard_car" route="N_S" depart="386.0" />    <vehicle id="N_S_318" type="standard_car" route="N_S" depart="388.0" />    <vehicle id="N_W_319" type="standard_car" route="N_W" depart="388.0" />    <vehicle id="S_N_320" type="standard_car" route="S_N" depart="391.0" />    <vehicle id="S_N_321" type="standard_car" route="S_N" depart="391.0" />    <vehicle id="S_W_322" type="standard_car" route="S_W" depart="392.0" />    <vehicle id="W_E_323" type="standard_car" route="W_E" depart="392.0" />    <vehicle id="S_N_324" type="standard_car" route="S_N" depart="392.0" />    <vehicle id="N_E_325" type="standard_car" route="N_E" depart="393.0" />    <vehicle id="S_N_326" type="standard_car" route="S_N" depart="393.0" />    <vehicle id="S_N_327" type="standard_car" route="S_N" depart="393.0" />    <vehicle id="N_S_328" type="standard_car" route="N_S" depart="393.0" />    <vehicle id="S_N_329" type="standard_car" route="S_N" depart="395.0" />    <vehicle id="S_N_330" type="standard_car" route="S_N" depart="395.0" />    <vehicle id="S_W_331" type="standard_car" route="S_W" depart="396.0" />    <vehicle id="S_N_332" type="standard_car" route="S_N" depart="398.0" />    <vehicle id="N_S_333" type="standard_car" route="N_S" depart="398.0" />    <vehicle id="S_N_334" type="standard_car" route="S_N" depart="398.0" />    <vehicle id="N_S_335" type="standard_car" route="N_S" depart="399.0" />    <vehicle id="N_S_336" type="standard_car" route="N_S" depart="400.0" />    <vehicle id="S_N_337" type="standard_car" route="S_N" depart="400.0" />    <vehicle id="S_N_338" type="standard_car" route="S_N" depart="401.0" />    <vehicle id="S_N_339" type="standard_car" route="S_N" depart="401.0" />    <vehicle id="N_E_340" type="standard_car" route="N_E" depart="403.0" />    <vehicle id="S_N_341" type="standard_car" route="S_N" depart="403.0" />    <vehicle id="S_N_342" type="standard_car" route="S_N" depart="403.0" />    <vehicle id="S_N_343" type="standard_car" route="S_N" depart="404.0" />    <vehicle id="S_N_344" type="standard_car" route="S_N" depart="404.0" />    <vehicle id="S_W_345" type="standard_car" route="S_W" depart="405.0" />    <vehicle id="N_S_346" type="standard_car" route="N_S" depart="406.0" />    <vehicle id="E_W_347" type="standard_car" route="E_W" depart="408.0" />    <vehicle id="N_S_348" type="standard_car" route="N_S" depart="409.0" />    <vehicle id="E_W_349" type="standard_car" route="E_W" depart="410.0" />    <vehicle id="S_N_350" type="standard_car" route="S_N" depart="411.0" />    <vehicle id="S_E_351" type="standard_car" route="N_E" depart="411.0" />    <vehicle id="W_E_352" type="standard_car" route="W_E" depart="411.0" />    <vehicle id="W_S_353" type="standard_car" route="W_S" depart="412.0" />    <vehicle id="N_S_354" type="standard_car" route="N_S" depart="412.0" />    <vehicle id="N_S_355" type="standard_car" route="N_S" depart="412.0" />    <vehicle id="S_N_356" type="standard_car" route="S_N" depart="413.0" />    <vehicle id="N_S_357" type="standard_car" route="N_S" depart="413.0" />    <vehicle id="S_N_358" type="standard_car" route="S_N" depart="414.0" />    <vehicle id="S_N_359" type="standard_car" route="S_N" depart="415.0" />    <vehicle id="N_S_360" type="standard_car" route="N_S" depart="416.0" />    <vehicle id="N_S_361" type="standard_car" route="N_S" depart="416.0" />    <vehicle id="S_N_362" type="standard_car" route="S_N" depart="417.0" />    <vehicle id="N_S_363" type="standard_car" route="N_S" depart="417.0" />    <vehicle id="N_S_364" type="standard_car" route="N_S" depart="418.0" />    <vehicle id="S_N_365" type="standard_car" route="S_N" depart="418.0" />    <vehicle id="N_S_366" type="standard_car" route="N_S" depart="419.0" />    <vehicle id="N_S_367" type="standard_car" route="N_S" depart="419.0" />    <vehicle id="S_N_368" type="standard_car" route="S_N" depart="419.0" />    <vehicle id="N_S_369" type="standard_car" route="N_S" depart="421.0" />    <vehicle id="N_S_370" type="standard_car" route="N_S" depart="422.0" />    <vehicle id="S_N_371" type="standard_car" route="S_N" depart="422.0" />    <vehicle id="N_E_372" type="standard_car" route="N_E" depart="422.0" />    <vehicle id="S_N_373" type="standard_car" route="S_N" depart="423.0" />    <vehicle id="N_W_374" type="standard_car" route="N_W" depart="423.0" />    <vehicle id="W_E_375" type="standard_car" route="W_E" depart="424.0" />    <vehicle id="N_S_376" type="standard_car" route="N_S" depart="424.0" />    <vehicle id="W_E_377" type="standard_car" route="W_E" depart="425.0" />    <vehicle id="S_N_378" type="standard_car" route="S_N" depart="426.0" />    <vehicle id="N_S_379" type="standard_car" route="N_S" depart="426.0" />    <vehicle id="N_S_380" type="standard_car" route="N_S" depart="426.0" />    <vehicle id="N_S_381" type="standard_car" route="N_S" depart="427.0" />    <vehicle id="N_W_382" type="standard_car" route="N_W" depart="428.0" />    <vehicle id="S_W_383" type="standard_car" route="S_W" depart="429.0" />    <vehicle id="S_N_384" type="standard_car" route="S_N" depart="429.0" />    <vehicle id="W_E_385" type="standard_car" route="W_E" depart="429.0" />    <vehicle id="S_N_386" type="standard_car" route="S_N" depart="429.0" />    <vehicle id="N_S_387" type="standard_car" route="N_S" depart="430.0" />    <vehicle id="N_S_388" type="standard_car" route="N_S" depart="430.0" />    <vehicle id="S_W_389" type="standard_car" route="S_W" depart="430.0" />    <vehicle id="N_S_390" type="standard_car" route="N_S" depart="431.0" />    <vehicle id="N_S_391" type="standard_car" route="N_S" depart="432.0" />    <vehicle id="S_N_392" type="standard_car" route="S_N" depart="432.0" />    <vehicle id="S_W_393" type="standard_car" route="S_