<routes>
    <vType accel="1.0" decel="4.5" id="standard_car" length="5.0" minGap="2.5" maxSpeed="25" sigma="0.5" />

    <route id="W_N" edges="W2TL TL2N"/>
    <route id="W_E" edges="W2TL TL2E"/>
    <route id="W_S" edges="W2TL TL2S"/>
    <route id="N_W" edges="N2TL TL2W"/>
    <route id="N_E" edges="N2TL TL2E"/>
    <route id="N_S" edges="N2TL TL2S"/>
    <route id="E_W" edges="E2TL TL2W"/>
    <route id="E_N" edges="E2TL TL2N"/>
    <route id="E_S" edges="E2TL TL2S"/>
    <route id="S_W" edges="S2TL TL2W"/>
    <route id="S_N" edges="S2TL TL2N"/>
    <route id="S_E" edges="S2TL TL2E"/>    <vehicle id="N_S_0" type="standard_car" route="N_S" depart="6.0" />    <vehicle id="S_W_1" type="standard_car" route="S_W" depart="21.0" />    <vehicle id="N_S_2" type="standard_car" route="N_S" depart="66.0" />    <vehicle id="N_S_3" type="standard_car" route="N_S" depart="69.0" />    <vehicle id="S_N_4" type="standard_car" route="S_N" depart="71.0" />    <vehicle id="N_S_5" type="standard_car" route="N_S" depart="102.0" />    <vehicle id="N_S_6" type="standard_car" route="N_S" depart="111.0" />    <vehicle id="S_N_7" type="standard_car" route="S_N" depart="119.0" />    <vehicle id="N_S_8" type="standard_car" route="N_S" depart="123.0" />    <vehicle id="S_E_9" type="standard_car" route="N_E" depart="127.0" />    <vehicle id="S_N_10" type="standard_car" route="S_N" depart="128.0" />    <vehicle id="W_E_11" type="standard_car" route="W_E" depart="130.0" />    <vehicle id="S_N_12" type="standard_car" route="S_N" depart="134.0" />    <vehicle id="S_N_13" type="standard_car" route="S_N" depart="134.0" />    <vehicle id="N_S_14" type="standard_car" route="N_S" depart="137.0" />    <vehicle id="S_N_15" type="standard_car" route="S_N" depart="144.0" />    <vehicle id="N_S_16" type="standard_car" route="N_S" depart="150.0" />    <vehicle id="S_N_17" type="standard_car" route="S_N" depart="157.0" />    <vehicle id="N_S_18" type="standard_car" route="N_S" depart="158.0" />    <vehicle id="S_N_19" type="standard_car" route="S_N" depart="160.0" />    <vehicle id="N_S_20" type="standard_car" route="N_S" depart="170.0" />    <vehicle id="N_S_21" type="standard_car" route="N_S" depart="172.0" />    <vehicle id="S_N_22" type="standard_car" route="S_N" depart="173.0" />    <vehicle id="S_E_23" type="standard_car" route="N_E" depart="174.0" />    <vehicle id="N_S_24" type="standard_car" route="N_S" depart="178.0" />    <vehicle id="E_W_25" type="standard_car" route="E_W" depart="180.0" />    <vehicle id="N_E_26" type="standard_car" route="N_E" depart="182.0" />    <vehicle id="S_N_27" type="standard_car" route="S_N" depart="188.0" />    <vehicle id="N_S_28" type="standard_car" route="N_S" depart="189.0" />    <vehicle id="S_N_29" type="standard_car" route="S_N" depart="190.0" />    <vehicle id="N_S_30" type="standard_car" route="N_S" depart="192.0" />    <vehicle id="S_N_31" type="standard_car" route="S_N" depart="193.0" />    <vehicle id="N_S_32" type="standard_car" route="N_S" depart="195.0" />    <vehicle id="W_E_33" type="standard_car" route="W_E" depart="195.0" />    <vehicle id="N_S_34" type="standard_car" route="N_S" depart="199.0" />    <vehicle id="N_S_35" type="standard_car" route="N_S" depart="199.0" />    <vehicle id="S_N_36" type="standard_car" route="S_N" depart="199.0" />    <vehicle id="S_W_37" type="standard_car" route="S_W" depart="199.0" />    <vehicle id="S_N_38" type="standard_car" route="S_N" depart="201.0" />    <vehicle id="W_E_39" type="standard_car" route="W_E" depart="203.0" />    <vehicle id="E_W_40" type="standard_car" route="E_W" depart="206.0" />    <vehicle id="S_N_41" type="standard_car" route="S_N" depart="207.0" />    <vehicle id="N_S_42" type="standard_car" route="N_S" depart="216.0" />    <vehicle id="S_E_43" type="standard_car" route="N_E" depart="217.0" />    <vehicle id="S_N_44" type="standard_car" route="S_N" depart="218.0" />    <vehicle id="S_N_45" type="standard_car" route="S_N" depart="219.0" />    <vehicle id="S_N_46" type="standard_car" route="S_N" depart="225.0" />    <vehicle id="N_S_47" type="standard_car" route="N_S" depart="233.0" />    <vehicle id="N_W_48" type="standard_car" route="N_W" depart="235.0" />    <vehicle id="N_W_49" type="standard_car" route="N_W" depart="240.0" />    <vehicle id="S_N_50" type="standard_car" route="S_N" depart="242.0" />    <vehicle id="N_W_51" type="standard_car" route="N_W" depart="243.0" />    <vehicle id="S_N_52" type="standard_car" route="S_N" depart="243.0" />    <vehicle id="N_S_53" type="standard_car" route="N_S" depart="244.0" />    <vehicle id="S_E_54" type="standard_car" route="N_E" depart="244.0" />    <vehicle id="N_E_55" type="standard_car" route="N_E" depart="245.0" />    <vehicle id="N_W_56" type="standard_car" route="N_W" depart="250.0" />    <vehicle id="N_S_57" type="standard_car" route="N_S" depart="251.0" />    <vehicle id="S_W_58" type="standard_car" route="S_W" depart="251.0" />    <vehicle id="N_S_59" type="standard_car" route="N_S" depart="254.0" />    <vehicle id="N_S_60" type="standard_car" route="N_S" depart="256.0" />    <vehicle id="N_S_61" type="standard_car" route="N_S" depart="260.0" />    <vehicle id="S_N_62" type="standard_car" route="S_N" depart="262.0" />    <vehicle id="N_S_63" type="standard_car" route="N_S" depart="264.0" />    <vehicle id="N_S_64" type="standard_car" route="N_S" depart="267.0" />    <vehicle id="N_S_65" type="standard_car" route="N_S" depart="269.0" />    <vehicle id="N_S_66" type="standard_car" route="N_S" depart="271.0" />    <vehicle id="S_N_67" type="standard_car" route="S_N" depart="276.0" />    <vehicle id="N_S_68" type="standard_car" route="N_S" depart="277.0" />    <vehicle id="N_E_69" type="standard_car" route="N_E" depart="278.0" />    <vehicle id="N_S_70" type="standard_car" route="N_S" depart="278.0" />    <vehicle id="S_N_71" type="standard_car" route="S_N" depart="282.0" />    <vehicle id="N_S_72" type="standard_car" route="N_S" depart="282.0" />    <vehicle id="N_E_73" type="standard_car" route="N_E" depart="283.0" />    <vehicle id="N_W_74" type="standard_car" route="N_W" depart="284.0" />    <vehicle id="S_W_75" type="standard_car" route="S_W" depart="288.0" />    <vehicle id="S_N_76" type="standard_car" route="S_N" depart="288.0" />    <vehicle id="S_N_77" type="standard_car" route="S_N" depart="289.0" />    <vehicle id="S_N_78" type="standard_car" route="S_N" depart="289.0" />    <vehicle id="N_S_79" type="standard_car" route="N_S" depart="289.0" />    <vehicle id="S_N_80" type="standard_car" route="S_N" depart="290.0" />    <vehicle id="N_S_81" type="standard_car" route="N_S" depart="291.0" />    <vehicle id="E_S_82" type="standard_car" route="E_S" depart="293.0" />    <vehicle id="N_S_83" type="standard_car" route="N_S" depart="294.0" />    <vehicle id="N_W_84" type="standard_car" route="N_W" depart="295.0" />    <vehicle id="S_N_85" type="standard_car" route="S_N" depart="295.0" />    <vehicle id="S_W_86" type="standard_car" route="S_W" depart="298.0" />    <vehicle id="S_N_87" type="standard_car" route="S_N" depart="299.0" />    <vehicle id="S_N_88" type="standard_car" route="S_N" depart="301.0" />    <vehicle id="W_E_89" type="standard_car" route="W_E" depart="308.0" />    <vehicle id="N_S_90" type="standard_car" route="N_S" depart="310.0" />    <vehicle id="N_S_91" type="standard_car" route="N_S" depart="310.0" />    <vehicle id="N_W_92" type="standard_car" route="N_W" depart="314.0" />    <vehicle id="S_N_93" type="standard_car" route="S_N" depart="316.0" />    <vehicle id="S_N_94" type="standard_car" route="S_N" depart="317.0" />    <vehicle id="N_S_95" type="standard_car" route="N_S" depart="318.0" />    <vehicle id="S_E_96" type="standard_car" route="N_E" depart="319.0" />    <vehicle id="N_E_97" type="standard_car" route="N_E" depart="320.0" />    <vehicle id="S_N_98" type="standard_car" route="S_N" depart="320.0" />    <vehicle id="N_S_99" type="standard_car" route="N_S" depart="322.0" />    <vehicle id="S_N_100" type="standard_car" route="S_N" depart="322.0" />    <vehicle id="S_N_101" type="standard_car" route="S_N" depart="327.0" />    <vehicle id="S_N_102" type="standard_car" route="S_N" depart="331.0" />    <vehicle id="S_N_103" type="standard_car" route="S_N" depart="331.0" />    <vehicle id="N_W_104" type="standard_car" route="N_W" depart="332.0" />    <vehicle id="S_W_105" type="standard_car" route="S_W" depart="333.0" />    <vehicle id="S_N_106" type="standard_car" route="S_N" depart="335.0" />    <vehicle id="S_E_107" type="standard_car" route="N_E" depart="337.0" />    <vehicle id="N_S_108" type="standard_car" route="N_S" depart="338.0" />    <vehicle id="N_S_109" type="standard_car" route="N_S" depart="341.0" />    <vehicle id="S_E_110" type="standard_car" route="N_E" depart="344.0" />    <vehicle id="N_E_111" type="standard_car" route="N_E" depart="345.0" />    <vehicle id="S_E_112" type="standard_car" route="N_E" depart="345.0" />    <vehicle id="S_N_113" type="standard_car" route="S_N" depart="347.0" />    <vehicle id="N_S_114" type="standard_car" route="N_S" depart="348.0" />    <vehicle id="W_N_115" type="standard_car" route="W_N" depart="348.0" />    <vehicle id="E_N_116" type="standard_car" route="E_N" depart="348.0" />    <vehicle id="S_N_117" type="standard_car" route="S_N" depart="349.0" />    <vehicle id="S_N_118" type="standard_car" route="S_N" depart="350.0" />    <vehicle id="N_S_119" type="standard_car" route="N_S" depart="351.0" />    <vehicle id="S_E_120" type="standard_car" route="N_E" depart="352.0" />    <vehicle id="N_S_121" type="standard_car" route="N_S" depart="356.0" />    <vehicle id="S_N_122" type="standard_car" route="S_N" depart="359.0" />    <vehicle id="S_N_123" type="standard_car" route="S_N" depart="359.0" />    <vehicle id="N_S_124" type="standard_car" route="N_S" depart="360.0" />    <vehicle id="S_E_125" type="standard_car" route="N_E" depart="361.0" />    <vehicle id="S_N_126" type="standard_car" route="S_N" depart="361.0" />    <vehicle id="N_S_127" type="standard_car" route="N_S" depart="361.0" />    <vehicle id="N_S_128" type="standard_car" route="N_S" depart="362.0" />    <vehicle id="N_S_129" type="standard_car" route="N_S" depart="364.0" />    <vehicle id="S_N_130" type="standard_car" route="S_N" depart="367.0" />    <vehicle id="N_W_131" type="standard_car" route="N_W" depart="367.0" />    <vehicle id="N_S_132" type="standard_car" route="N_S" depart="368.0" />    <vehicle id="N_S_133" type="standard_car" route="N_S" depart="371.0" />    <vehicle id="S_N_134" type="standard_car" route="S_N" depart="371.0" />    <vehicle id="N_S_135" type="standard_car" route="N_S" depart="373.0" />    <vehicle id="N_E_136" type="standard_car" route="N_E" depart="373.0" />    <vehicle id="N_E_137" type="standard_car" route="N_E" depart="373.0" />    <vehicle id="S_E_138" type="standard_car" route="N_E" depart="375.0" />    <vehicle id="N_S_139" type="standard_car" route="N_S" depart="378.0" />    <vehicle id="S_N_140" type="standard_car" route="S_N" depart="378.0" />    <vehicle id="S_N_141" type="standard_car" route="S_N" depart="379.0" />    <vehicle id="S_E_142" type="standard_car" route="N_E" depart="381.0" />    <vehicle id="N_W_143" type="standard_car" route="N_W" depart="381.0" />    <vehicle id="S_E_144" type="standard_car" route="N_E" depart="386.0" />    <vehicle id="S_E_145" type="standard_car" route="N_E" depart="387.0" />    <vehicle id="E_W_146" type="standard_car" route="E_W" depart="387.0" />    <vehicle id="N_E_147" type="standard_car" route="N_E" depart="388.0" />    <vehicle id="N_S_148" type="standard_car" route="N_S" depart="388.0" />    <vehicle id="W_E_149" type="standard_car" route="W_E" depart="389.0" />    <vehicle id="E_W_150" type="standard_car" route="E_W" depart="389.0" />    <vehicle id="N_S_151" type="standard_car" route="N_S" depart="391.0" />    <vehicle id="N_S_152" type="standard_car" route="N_S" depart="393.0" />    <vehicle id="N_W_153" type="standard_car" route="N_W" depart="394.0" />    <vehicle id="S_N_154" type="standard_car" route="S_N" depart="395.0" />    <vehicle id="S_E_155" type="standard_car" route="N_E" depart="400.0" />    <vehicle id="N_S_156" type="standard_car" route="N_S" depart="400.0" />    <vehicle id="N_S_157" type="standard_car" route="N_S" depart="400.0" />    <vehicle id="S_N_158" type="standard_car" route="S_N" depart="408.0" />    <vehicle id="N_S_159" type="standard_car" route="N_S" depart="409.0" />    <vehicle id="N_S_160" type="standard_car" route="N_S" depart="412.0" />    <vehicle id="N_S_161" type="standard_car" route="N_S" depart="414.0" />    <vehicle id="S_N_162" type="standard_car" route="S_N" depart="414.0" />    <vehicle id="S_N_163" type="standard_car" route="S_N" depart="415.0" />    <vehicle id="N_E_164" type="standard_car" route="N_E" depart="415.0" />    <vehicle id="S_N_165" type="standard_car" route="S_N" depart="415.0" />    <vehicle id="N_E_166" type="standard_car" route="N_E" depart="416.0" />    <vehicle id="N_S_167" type="standard_car" route="N_S" depart="416.0" />    <vehicle id="S_N_168" type="standard_car" route="S_N" depart="417.0" />    <vehicle id="S_N_169" type="standard_car" route="S_N" depart="417.0" />    <vehicle id="S_N_170" type="standard_car" route="S_N" depart="425.0" />    <vehicle id="N_S_171" type="standard_car" route="N_S" depart="427.0" />    <vehicle id="N_S_172" type="standard_car" route="N_S" depart="427.0" />    <vehicle id="E_W_173" type="standard_car" route="E_W" depart="433.0" />    <vehicle id="N_E_174" type="standard_car" route="N_E" depart="434.0" />    <vehicle id="E_W_175" type="standard_car" route="E_W" depart="436.0" />    <vehicle id="S_N_176" type="standard_car" route="S_N" depart="436.0" />    <vehicle id="N_W_177" type="standard_car" route="N_W" depart="438.0" />    <vehicle id="N_W_178" type="standard_car" route="N_W" depart="439.0" />    <vehicle id="N_S_179" type="standard_car" route="N_S" depart="439.0" />    <vehicle id="S_W_180" type="standard_car" route="S_W" depart="439.0" />    <vehicle id="N_S_181" type="standard_car" route="N_S" depart="439.0" />    <vehicle id="N_S_182" type="standard_car" route="N_S" depart="440.0" />    <vehicle id="S_E_183" type="standard_car" route="N_E" depart="440.0" />    <vehicle id="N_E_184" type="standard_car" route="N_E" depart="441.0" />    <vehicle id="S_N_185" type="standard_car" route="S_N" depart="442.0" />    <vehicle id="N_S_186" type="standard_car" route="N_S" depart="446.0" />    <vehicle id="S_W_187" type="standard_car" route="S_W" depart="448.0" />    <vehicle id="E_W_188" type="standard_car" route="E_W" depart="449.0" />    <vehicle id="N_S_189" type="standard_car" route="N_S" depart="449.0" />    <vehicle id="N_S_190" type="standard_car" route="N_S" depart="452.0" />    <vehicle id="S_E_191" type="standard_car" route="N_E" depart="453.0" />    <vehicle id="S_N_192" type="standard_car" route="S_N" depart="456.0" />    <vehicle id="N_E_193" type="standard_car" route="N_E" depart="456.0" />    <vehicle id="N_S_194" type="standard_car" route="N_S" depart="456.0" />    <vehicle id="S_N_195" type="standard_car" route="S_N" depart="457.0" />    <vehicle id="N_W_196" type="standard_car" route="N_W" depart="458.0" />    <vehicle id="N_S_197" type="standard_car" route="N_S" depart="458.0" />    <vehicle id="N_S_198" type="standard_car" route="N_S" depart="461.0" />    <vehicle id="S_N_199" type="standard_car" route="S_N" depart="461.0" />    <vehicle id="N_S_200" type="standard_car" route="N_S" depart="462.0" />    <vehicle id="S_N_201" type="standard_car" route="S_N" depart="464.0" />    <vehicle id="S_N_202" type="standard_car" route="S_N" depart="466.0" />    <vehicle id="N_S_203" type="standard_car" route="N_S" depart="467.0" />    <vehicle id="S_E_204" type="standard_car" route="N_E" depart="467.0" />    <vehicle id="N_S_205" type="standard_car" route="N_S" depart="468.0" />    <vehicle id="E_S_206" type="standard_car" route="E_S" depart="468.0" />    <vehicle id="N_S_207" type="standard_car" route="N_S" depart="469.0" />    <vehicle id="N_S_208" type="standard_car" route="N_S" depart="469.0" />    <vehicle id="W_E_209" type="standard_car" route="W_E" depart="470.0" />    <vehicle id="S_N_210" type="standard_car" route="S_N" depart="472.0" />    <vehicle id="N_S_211" type="standard_car" route="N_S" depart="472.0" />    <vehicle id="S_E_212" type="standard_car" route="N_E" depart="473.0" />    <vehicle id="S_W_213" type="standard_car" route="S_W" depart="474.0" />    <vehicle id="S_W_214" type="standard_car" route="S_W" depart="475.0" />    <vehicle id="N_S_215" type="standard_car" route="N_S" depart="476.0" />    <vehicle id="N_S_216" type="standard_car" route="N_S" depart="476.0" />    <vehicle id="S_E_217" type="standard_car" route="N_E" depart="477.0" />    <vehicle id="N_S_218" type="standard_car" route="N_S" depart="478.0" />    <vehicle id="S_N_219" type="standard_car" route="S_N" depart="481.0" />    <vehicle id="W_E_220" type="standard_car" route="W_E" depart="481.0" />    <vehicle id="N_S_221" type="standard_car" route="N_S" depart="483.0" />    <vehicle id="S_N_222" type="standard_car" route="S_N" depart="483.0" />    <vehicle id="W_E_223" type="standard_car" route="W_E" depart="484.0" />    <vehicle id="S_W_224" type="standard_car" route="S_W" depart="487.0" />    <vehicle id="S_N_225" type="standard_car" route="S_N" depart="488.0" />    <vehicle id="S_N_226" type="standard_car" route="S_N" depart="489.0" />    <vehicle id="N_S_227" type="standard_car" route="N_S" depart="489.0" />    <vehicle id="N_S_228" type="standard_car" route="N_S" depart="489.0" />    <vehicle id="S_N_229" type="standard_car" route="S_N" depart="489.0" />    <vehicle id="S_W_230" type="standard_car" route="S_W" depart="491.0" />    <vehicle id="S_N_231" type="standard_car" route="S_N" depart="491.0" />    <vehicle id="N_S_232" type="standard_car" route="N_S" depart="492.0" />    <vehicle id="S_N_233" type="standard_car" route="S_N" depart="493.0" />    <vehicle id="N_S_234" type="standard_car" route="N_S" depart="493.0" />    <vehicle id="N_S_235" type="standard_car" route="N_S" depart="494.0" />    <vehicle id="S_N_236" type="standard_car" route="S_N" depart="495.0" />    <vehicle id="S_N_237" type="standard_car" route="S_N" depart="495.0" />    <vehicle id="N_S_238" type="standard_car" route="N_S" depart="496.0" />    <vehicle id="N_S_239" type="standard_car" route="N_S" depart="496.0" />    <vehicle id="N_S_240" type="standard_car" route="N_S" depart="497.0" />    <vehicle id="S_N_241" type="standard_car" route="S_N" depart="498.0" />    <vehicle id="N_S_242" type="standard_car" route="N_S" depart="499.0" />    <vehicle id="S_N_243" type="standard_car" route="S_N" depart="501.0" />    <vehicle id="N_S_244" type="standard_car" route="N_S" depart="503.0" />    <vehicle id="W_E_245" type="standard_car" route="W_E" depart="505.0" />    <vehicle id="N_S_246" type="standard_car" route="N_S" depart="506.0" />    <vehicle id="S_N_247" type="standard_car" route="S_N" depart="507.0" />    <vehicle id="N_S_248" type="standard_car" route="N_S" depart="507.0" />    <vehicle id="S_N_249" type="standard_car" route="S_N" depart="509.0" />    <vehicle id="S_N_250" type="standard_car" route="S_N" depart="509.0" />    <vehicle id="S_N_251" type="standard_car" route="S_N" depart="509.0" />    <vehicle id="S_E_252" type="standard_car" route="N_E" depart="510.0" />    <vehicle id="N_S_253" type="standard_car" route="N_S" depart="512.0" />    <vehicle id="S_N_254" type="standard_car" route="S_N" depart="512.0" />    <vehicle id="N_E_255" type="standard_car" route="N_E" depart="515.0" />    <vehicle id="S_N_256" type="standard_car" route="S_N" depart="515.0" />    <vehicle id="S_N_257" type="standard_car" route="S_N" depart="515.0" />    <vehicle id="N_S_258" type="standard_car" route="N_S" depart="516.0" />    <vehicle id="W_E_259" type="standard_car" route="W_E" depart="518.0" />    <vehicle id="N_S_260" type="standard_car" route="N_S" depart="518.0" />    <vehicle id="N_S_261" type="standard_car" route="N_S" depart="520.0" />    <vehicle id="S_N_262" type="standard_car" route="S_N" depart="520.0" />    <vehicle id="S_N_263" type="standard_car" route="S_N" depart="521.0" />    <vehicle id="S_W_264" type="standard_car" route="S_W" depart="522.0" />    <vehicle id="N_S_265" type="standard_car" route="N_S" depart="523.0" />    <vehicle id="N_S_266" type="standard_car" route="N_S" depart="523.0" />    <vehicle id="E_W_267" type="standard_car" route="E_W" depart="524.0" />    <vehicle id="S_N_268" type="standard_car" route="S_N" depart="525.0" />    <vehicle id="N_S_269" type="standard_car" route="N_S" depart="526.0" />    <vehicle id="S_N_270" type="standard_car" route="S_N" depart="526.0" />    <vehicle id="S_N_271" type="standard_car" route="S_N" depart="527.0" />    <vehicle id="S_E_272" type="standard_car" route="N_E" depart="528.0" />    <vehicle id="S_N_273" type="standard_car" route="S_N" depart="529.0" />    <vehicle id="N_S_274" type="standard_car" route="N_S" depart="531.0" />    <vehicle id="E_W_275" type="standard_car" route="E_W" depart="532.0" />    <vehicle id="S_N_276" type="standard_car" route="S_N" depart="534.0" />    <vehicle id="N_S_277" type="standard_car" route="N_S" depart="534.0" />    <vehicle id="S_N_278" type="standard_car" route="S_N" depart="536.0" />    <vehicle id="N_S_279" type="standard_car" route="N_S" depart="536.0" />    <vehicle id="S_E_280" type="standard_car" route="N_E" depart="538.0" />    <vehicle id="N_S_281" type="standard_car" route="N_S" depart="538.0" />    <vehicle id="S_N_282" type="standard_car" route="S_N" depart="538.0" />    <vehicle id="S_N_283" type="standard_car" route="S_N" depart="539.0" />    <vehicle id="N_S_284" type="standard_car" route="N_S" depart="543.0" />    <vehicle id="N_S_285" type="standard_car" route="N_S" depart="543.0" />    <vehicle id="S_E_286" type="standard_car" route="N_E" depart="543.0" />    <vehicle id="N_S_287" type="standard_car" route="N_S" depart="545.0" />    <vehicle id="N_S_288" type="standard_car" route="N_S" depart="546.0" />    <vehicle id="N_S_289" type="standard_car" route="N_S" depart="548.0" />    <vehicle id="S_N_290" type="standard_car" route="S_N" depart="548.0" />    <vehicle id="S_N_291" type="standard_car" route="S_N" depart="548.0" />    <vehicle id="S_N_292" type="standard_car" route="S_N" depart="549.0" />    <vehicle id="S_N_293" type="standard_car" route="S_N" depart="550.0" />    <vehicle id="N_S_294" type="standard_car" route="N_S" depart="550.0" />    <vehicle id="S_N_295" type="standard_car" route="S_N" depart="551.0" />    <vehicle id="N_W_296" type="standard_car" route="N_W" depart="554.0" />    <vehicle id="S_N_297" type="standard_car" route="S_N" depart="557.0" />    <vehicle id="N_S_298" type="standard_car" route="N_S" depart="557.0" />    <vehicle id="S_N_299" type="standard_car" route="S_N" depart="558.0" />    <vehicle id="S_W_300" type="standard_car" route="S_W" depart="558.0" />    <vehicle id="S_N_301" type="standard_car" route="S_N" depart="562.0" />    <vehicle id="S_N_302" type="standard_car" route="S_N" depart="563.0" />    <vehicle id="S_N_303" type="standard_car" route="S_N" depart="565.0" />    <vehicle id="S_E_304" type="standard_car" route="N_E" depart="565.0" />    <vehicle id="W_E_305" type="standard_car" route="W_E" depart="565.0" />    <vehicle id="S_N_306" type="standard_car" route="S_N" depart="565.0" />    <vehicle id="N_S_307" type="standard_car" route="N_S" depart="567.0" />    <vehicle id="S_E_308" type="standard_car" route="N_E" depart="570.0" />    <vehicle id="S_N_309" type="standard_car" route="S_N" depart="570.0" />    <vehicle id="S_N_310" type="standard_car" route="S_N" depart="571.0" />    <vehicle id="S_N_311" type="standard_car" route="S_N" depart="574.0" />    <vehicle id="W_E_312" type="standard_car" route="W_E" depart="574.0" />    <vehicle id="S_N_313" type="standard_car" route="S_N" depart="576.0" />    <vehicle id="N_S_314" type="standard_car" route="N_S" depart="577.0" />    <vehicle id="S_N_315" type="standard_car" route="S_N" depart="578.0" />    <vehicle id="S_E_316" type="standard_car" route="N_E" depart="578.0" />    <vehicle id="N_S_317" type="standard_car" route="N_S" depart="579.0" />    <vehicle id="N_S_318" type="standard_car" route="N_S" depart="582.0" />    <vehicle id="N_W_319" type="standard_car" route="N_W" depart="583.0" />    <vehicle id="S_N_320" type="standard_car" route="S_N" depart="586.0" />    <vehicle id="S_N_321" type="standard_car" route="S_N" depart="587.0" />    <vehicle id="S_W_322" type="standard_car" route="S_W" depart="587.0" />    <vehicle id="W_E_323" type="standard_car" route="W_E" depart="588.0" />    <vehicle id="S_N_324" type="standard_car" route="S_N" depart="589.0" />    <vehicle id="N_E_325" type="standard_car" route="N_E" depart="589.0" />    <vehicle id="S_N_326" type="standard_car" route="S_N" depart="590.0" />    <vehicle id="S_N_327" type="standard_car" route="S_N" depart="590.0" />    <vehicle id="N_S_328" type="standard_car" route="N_S" depart="590.0" />    <vehicle id="S_N_329" type="standard_car" route="S_N" depart="592.0" />    <vehicle id="S_N_330" type="standard_car" route="S_N" depart="592.0" />    <vehicle id="S_W_331" type="standard_car" route="S_W" depart="594.0" />    <vehicle id="S_N_332" type="standard_car" route="S_N" depart="597.0" />    <vehicle id="N_S_333" type="standard_car" route="N_S" depart="597.0" />    <vehicle id="S_N_334" type="standard_car" route="S_N" depart="597.0" />    <vehicle id="N_S_335" type="standard_car" route="N_S" depart="598.0" />    <vehicle id="N_S_336" type="standard_car" route="N_S" depart="599.0" />    <vehicle id="S_N_337" type="standard_car" route="S_N" depart="601.0" />    <vehicle id="S_N_338" type="standard_car" route="S_N" depart="601.0" />    <vehicle id="S_N_339" type="standard_car" route="S_N" depart="602.0" />    <vehicle id="N_E_340" type="standard_car" route="N_E" depart="604.0" />    <vehicle id="S_N_341" type="standard_car" route="S_N" depart="604.0" />    <vehicle id="S_N_342" type="standard_car" route="S_N" depart="605.0" />    <vehicle id="S_N_343" type="standard_car" route="S_N" depart="605.0" />    <vehicle id="S_N_344" type="standard_car" route="S_N" depart="606.0" />    <vehicle id="S_W_345" type="standard_car" route="S_W" depart="608.0" />    <vehicle id="N_S_346" type="standard_car" route="N_S" depart="609.0" />    <vehicle id="E_W_347" type="standard_car" route="E_W" depart="612.0" />    <vehicle id="N_S_348" type="standard_car" route="N_S" depart="614.0" />    <vehicle id="E_W_349" type="standard_car" route="E_W" depart="615.0" />    <vehicle id="S_N_350" type="standard_car" route="S_N" depart="616.0" />    <vehicle id="S_E_351" type="standard_car" route="N_E" depart="616.0" />    <vehicle id="W_E_352" type="standard_car" route="W_E" depart="617.0" />    <vehicle id="W_S_353" type="standard_car" route="W_S" depart="617.0" />    <vehicle id="N_S_354" type="standard_car" route="N_S" depart="617.0" />    <vehicle id="N_S_355" type="standard_car" route="N_S" depart="618.0" />    <vehicle id="S_N_356" type="standard_car" route="S_N" depart="619.0" />    <vehicle id="N_S_357" type="standard_car" route="N_S" depart="620.0" />    <vehicle id="S_N_358" type="standard_car" route="S_N" depart="620.0" />    <vehicle id="S_N_359" type="standard_car" route="S_N" depart="622.0" />    <vehicle id="N_S_360" type="standard_car" route="N_S" depart="624.0" />    <vehicle id="N_S_361" type="standard_car" route="N_S" depart="625.0" />    <vehicle id="S_N_362" type="standard_car" route="S_N" depart="625.0" />    <vehicle id="N_S_363" type="standard_car" route="N_S" depart="626.0" />    <vehicle id="N_S_364" type="standard_car" route="N_S" depart="627.0" />    <vehicle id="S_N_365" type="standard_car" route="S_N" depart="628.0" />    <vehicle id="N_S_366" type="standard_car" route="N_S" depart="628.0" />    <vehicle id="N_S_367" type="standard_car" route="N_S" depart="629.0" />    <vehicle id="S_N_368" type="standard_car" route="S_N" depart="629.0" />    <vehicle id="N_S_369" type="standard_car" route="N_S" depart="632.0" />    <vehicle id="N_S_370" type="standard_car" route="N_S" depart="632.0" />    <vehicle id="S_N_371" type="standard_car" route="S_N" depart="632.0" />    <vehicle id="N_E_372" type="standard_car" route="N_E" depart="633.0" />    <vehicle id="S_N_373" type="standard_car" route="S_N" depart="635.0" />    <vehicle id="N_W_374" type="standard_car" route="N_W" depart="635.0" />    <vehicle id="W_E_375" type="standard_car" route="W_E" depart="636.0" />    <vehicle id="N_S_376" type="standard_car" route="N_S" depart="636.0" />    <vehicle id="W_E_377" type="standard_car" route="W_E" depart="637.0" />    <vehicle id="S_N_378" type="standard_car" route="S_N" depart="638.0" />    <vehicle id="N_S_379" type="standard_car" route="N_S" depart="639.0" />    <vehicle id="N_S_380" type="standard_car" route="N_S" depart="639.0" />    <vehicle id="N_S_381" type="standard_car" route="N_S" depart="640.0" />    <vehicle id="N_W_382" type="standard_car" route="N_W" depart="642.0" />    <vehicle id="S_W_383" type="standard_car" route="S_W" depart="643.0" />    <vehicle id="S_N_384" type="standard_car" route="S_N" depart="643.0" />    <vehicle id="W_E_385" type="standard_car" route="W_E" depart="644.0" />    <vehicle id="S_N_386" type="standard_car" route="S_N" depart="644.0" />    <vehicle id="N_S_387" type="standard_car" route="N_S" depart="645.0" />    <vehicle id="N_S_388" type="standard_car" route="N_S" depart="645.0" />    <vehicle id="S_W_389" type="standard_car" route="S_W" depart="645.0" />    <vehicle id="N_S_390" type="standard_car" route="N_S" depart="646.0" />    <vehicle id="N_S_391" type="standard_car" route="N_S" depart="648.0" />    <vehicle id="S_N_392" type="standard_car" route="S_N" depart="648.0" />    <vehicle id="S_W_393" type="standard_car