<routes>
    <vType accel="1.0" decel="4.5" id="standard_car" length="5.0" minGap="2.5" maxSpeed="25" sigma="0.5" />

    <route id="W_N" edges="W2TL TL2N"/>
    <route id="W_E" edges="W2TL TL2E"/>
    <route id="W_S" edges="W2TL TL2S"/>
    <route id="N_W" edges="N2TL TL2W"/>
    <route id="N_E" edges="N2TL TL2E"/>
    <route id="N_S" edges="N2TL TL2S"/>
    <route id="E_W" edges="E2TL TL2W"/>
    <route id="E_N" edges="E2TL TL2N"/>
    <route id="E_S" edges="E2TL TL2S"/>
    <route id="S_W" edges="S2TL TL2W"/>
    <route id="S_N" edges="S2TL TL2N"/>
    <route id="S_E" edges="S2TL TL2E"/>    <vehicle id="S_N_0" type="standard_car" route="S_N" depart="1.0" />    <vehicle id="S_N_1" type="standard_car" route="S_N" depart="1.0" />    <vehicle id="N_S_2" type="standard_car" route="N_S" depart="1.0" />    <vehicle id="S_N_3" type="standard_car" route="S_N" depart="2.0" />    <vehicle id="S_N_4" type="standard_car" route="S_N" depart="2.0" />    <vehicle id="N_S_5" type="standard_car" route="N_S" depart="2.0" />    <vehicle id="N_S_6" type="standard_car" route="N_S" depart="2.0" />    <vehicle id="S_N_7" type="standard_car" route="S_N" depart="2.0" />    <vehicle id="S_N_8" type="standard_car" route="S_N" depart="2.0" />    <vehicle id="W_E_9" type="standard_car" route="W_E" depart="2.0" />    <vehicle id="S_E_10" type="standard_car" route="N_E" depart="2.0" />    <vehicle id="N_S_11" type="standard_car" route="N_S" depart="2.0" />    <vehicle id="S_N_12" type="standard_car" route="S_N" depart="2.0" />    <vehicle id="S_N_13" type="standard_car" route="S_N" depart="2.0" />    <vehicle id="N_S_14" type="standard_car" route="N_S" depart="2.0" />    <vehicle id="N_S_15" type="standard_car" route="N_S" depart="2.0" />    <vehicle id="S_N_16" type="standard_car" route="S_N" depart="2.0" />    <vehicle id="N_W_17" type="standard_car" route="N_W" depart="2.0" />    <vehicle id="N_S_18" type="standard_car" route="N_S" depart="2.0" />    <vehicle id="N_S_19" type="standard_car" route="N_S" depart="3.0" />    <vehicle id="N_S_20" type="standard_car" route="N_S" depart="3.0" />    <vehicle id="N_S_21" type="standard_car" route="N_S" depart="3.0" />    <vehicle id="S_N_22" type="standard_car" route="S_N" depart="3.0" />    <vehicle id="S_N_23" type="standard_car" route="S_N" depart="3.0" />    <vehicle id="S_N_24" type="standard_car" route="S_N" depart="3.0" />    <vehicle id="S_N_25" type="standard_car" route="S_N" depart="3.0" />    <vehicle id="N_W_26" type="standard_car" route="N_W" depart="3.0" />    <vehicle id="N_W_27" type="standard_car" route="N_W" depart="3.0" />    <vehicle id="N_S_28" type="standard_car" route="N_S" depart="3.0" />    <vehicle id="S_W_29" type="standard_car" route="S_W" depart="3.0" />    <vehicle id="W_E_30" type="standard_car" route="W_E" depart="3.0" />    <vehicle id="S_N_31" type="standard_car" route="S_N" depart="3.0" />    <vehicle id="N_S_32" type="standard_car" route="N_S" depart="3.0" />    <vehicle id="S_N_33" type="standard_car" route="S_N" depart="3.0" />    <vehicle id="E_N_34" type="standard_car" route="E_N" depart="3.0" />    <vehicle id="S_W_35" type="standard_car" route="S_W" depart="3.0" />    <vehicle id="S_N_36" type="standard_car" route="S_N" depart="3.0" />    <vehicle id="S_W_37" type="standard_car" route="S_W" depart="4.0" />    <vehicle id="W_E_38" type="standard_car" route="W_E" depart="4.0" />    <vehicle id="N_S_39" type="standard_car" route="N_S" depart="4.0" />    <vehicle id="N_S_40" type="standard_car" route="N_S" depart="4.0" />    <vehicle id="S_E_41" type="standard_car" route="N_E" depart="4.0" />    <vehicle id="S_W_42" type="standard_car" route="S_W" depart="4.0" />    <vehicle id="S_N_43" type="standard_car" route="S_N" depart="4.0" />    <vehicle id="S_N_44" type="standard_car" route="S_N" depart="4.0" />    <vehicle id="N_W_45" type="standard_car" route="N_W" depart="4.0" />    <vehicle id="S_N_46" type="standard_car" route="S_N" depart="4.0" />    <vehicle id="W_S_47" type="standard_car" route="W_S" depart="4.0" />    <vehicle id="S_N_48" type="standard_car" route="S_N" depart="4.0" />    <vehicle id="S_N_49" type="standard_car" route="S_N" depart="4.0" />    <vehicle id="S_N_50" type="standard_car" route="S_N" depart="4.0" />    <vehicle id="N_S_51" type="standard_car" route="N_S" depart="4.0" />    <vehicle id="S_N_52" type="standard_car" route="S_N" depart="4.0" />    <vehicle id="S_E_53" type="standard_car" route="N_E" depart="4.0" />    <vehicle id="S_N_54" type="standard_car" route="S_N" depart="5.0" />    <vehicle id="W_E_55" type="standard_car" route="W_E" depart="5.0" />    <vehicle id="S_N_56" type="standard_car" route="S_N" depart="5.0" />    <vehicle id="S_N_57" type="standard_car" route="S_N" depart="5.0" />    <vehicle id="N_S_58" type="standard_car" route="N_S" depart="5.0" />    <vehicle id="W_S_59" type="standard_car" route="W_S" depart="5.0" />    <vehicle id="S_E_60" type="standard_car" route="N_E" depart="5.0" />    <vehicle id="N_W_61" type="standard_car" route="N_W" depart="5.0" />    <vehicle id="S_N_62" type="standard_car" route="S_N" depart="5.0" />    <vehicle id="E_W_63" type="standard_car" route="E_W" depart="5.0" />    <vehicle id="N_S_64" type="standard_car" route="N_S" depart="5.0" />    <vehicle id="N_E_65" type="standard_car" route="N_E" depart="5.0" />    <vehicle id="S_N_66" type="standard_car" route="S_N" depart="5.0" />    <vehicle id="N_S_67" type="standard_car" route="N_S" depart="5.0" />    <vehicle id="S_N_68" type="standard_car" route="S_N" depart="5.0" />    <vehicle id="S_N_69" type="standard_car" route="S_N" depart="5.0" />    <vehicle id="S_N_70" type="standard_car" route="S_N" depart="5.0" />    <vehicle id="S_N_71" type="standard_car" route="S_N" depart="5.0" />    <vehicle id="N_E_72" type="standard_car" route="N_E" depart="5.0" />    <vehicle id="S_N_73" type="standard_car" route="S_N" depart="6.0" />    <vehicle id="E_W_74" type="standard_car" route="E_W" depart="6.0" />    <vehicle id="S_N_75" type="standard_car" route="S_N" depart="6.0" />    <vehicle id="N_S_76" type="standard_car" route="N_S" depart="6.0" />    <vehicle id="N_S_77" type="standard_car" route="N_S" depart="6.0" />    <vehicle id="N_S_78" type="standard_car" route="N_S" depart="6.0" />    <vehicle id="N_S_79" type="standard_car" route="N_S" depart="6.0" />    <vehicle id="N_S_80" type="standard_car" route="N_S" depart="6.0" />    <vehicle id="S_N_81" type="standard_car" route="S_N" depart="6.0" />    <vehicle id="N_W_82" type="standard_car" route="N_W" depart="6.0" />    <vehicle id="N_S_83" type="standard_car" route="N_S" depart="6.0" />    <vehicle id="N_S_84" type="standard_car" route="N_S" depart="6.0" />    <vehicle id="N_W_85" type="standard_car" route="N_W" depart="6.0" />    <vehicle id="S_N_86" type="standard_car" route="S_N" depart="6.0" />    <vehicle id="E_W_87" type="standard_car" route="E_W" depart="6.0" />    <vehicle id="N_S_88" type="standard_car" route="N_S" depart="6.0" />    <vehicle id="W_E_89" type="standard_car" route="W_E" depart="6.0" />    <vehicle id="E_S_90" type="standard_car" route="E_S" depart="6.0" />    <vehicle id="E_W_91" type="standard_car" route="E_W" depart="6.0" />    <vehicle id="S_N_92" type="standard_car" route="S_N" depart="6.0" />    <vehicle id="S_N_93" type="standard_car" route="S_N" depart="6.0" />    <vehicle id="S_N_94" type="standard_car" route="S_N" depart="6.0" />    <vehicle id="N_W_95" type="standard_car" route="N_W" depart="6.0" />    <vehicle id="N_W_96" type="standard_car" route="N_W" depart="6.0" />    <vehicle id="N_S_97" type="standard_car" route="N_S" depart="6.0" />    <vehicle id="N_S_98" type="standard_car" route="N_S" depart="6.0" />    <vehicle id="N_S_99" type="standard_car" route="N_S" depart="6.0" />    <vehicle id="N_E_100" type="standard_car" route="N_E" depart="6.0" />    <vehicle id="S_N_101" type="standard_car" route="S_N" depart="6.0" />    <vehicle id="S_N_102" type="standard_car" route="S_N" depart="6.0" />    <vehicle id="S_E_103" type="standard_car" route="N_E" depart="6.0" />    <vehicle id="S_N_104" type="standard_car" route="S_N" depart="6.0" />    <vehicle id="S_N_105" type="standard_car" route="S_N" depart="7.0" />    <vehicle id="S_N_106" type="standard_car" route="S_N" depart="7.0" />    <vehicle id="S_N_107" type="standard_car" route="S_N" depart="7.0" />    <vehicle id="S_N_108" type="standard_car" route="S_N" depart="7.0" />    <vehicle id="N_S_109" type="standard_car" route="N_S" depart="7.0" />    <vehicle id="S_N_110" type="standard_car" route="S_N" depart="7.0" />    <vehicle id="N_S_111" type="standard_car" route="N_S" depart="7.0" />    <vehicle id="S_N_112" type="standard_car" route="S_N" depart="7.0" />    <vehicle id="N_W_113" type="standard_car" route="N_W" depart="7.0" />    <vehicle id="N_S_114" type="standard_car" route="N_S" depart="7.0" />    <vehicle id="N_S_115" type="standard_car" route="N_S" depart="7.0" />    <vehicle id="W_S_116" type="standard_car" route="W_S" depart="7.0" />    <vehicle id="N_S_117" type="standard_car" route="N_S" depart="7.0" />    <vehicle id="S_N_118" type="standard_car" route="S_N" depart="7.0" />    <vehicle id="S_W_119" type="standard_car" route="S_W" depart="7.0" />    <vehicle id="S_E_120" type="standard_car" route="N_E" depart="7.0" />    <vehicle id="N_S_121" type="standard_car" route="N_S" depart="7.0" />    <vehicle id="S_N_122" type="standard_car" route="S_N" depart="7.0" />    <vehicle id="S_N_123" type="standard_car" route="S_N" depart="7.0" />    <vehicle id="N_S_124" type="standard_car" route="N_S" depart="7.0" />    <vehicle id="S_N_125" type="standard_car" route="S_N" depart="7.0" />    <vehicle id="S_N_126" type="standard_car" route="S_N" depart="7.0" />    <vehicle id="W_S_127" type="standard_car" route="W_S" depart="7.0" />    <vehicle id="S_N_128" type="standard_car" route="S_N" depart="7.0" />    <vehicle id="E_W_129" type="standard_car" route="E_W" depart="7.0" />    <vehicle id="N_S_130" type="standard_car" route="N_S" depart="7.0" />    <vehicle id="S_N_131" type="standard_car" route="S_N" depart="7.0" />    <vehicle id="S_N_132" type="standard_car" route="S_N" depart="7.0" />    <vehicle id="S_N_133" type="standard_car" route="S_N" depart="7.0" />    <vehicle id="N_S_134" type="standard_car" route="N_S" depart="7.0" />    <vehicle id="E_S_135" type="standard_car" route="E_S" depart="7.0" />    <vehicle id="S_W_136" type="standard_car" route="S_W" depart="7.0" />    <vehicle id="N_S_137" type="standard_car" route="N_S" depart="7.0" />    <vehicle id="N_S_138" type="standard_car" route="N_S" depart="7.0" />    <vehicle id="N_S_139" type="standard_car" route="N_S" depart="7.0" />    <vehicle id="W_E_140" type="standard_car" route="W_E" depart="7.0" />    <vehicle id="N_E_141" type="standard_car" route="N_E" depart="7.0" />    <vehicle id="S_N_142" type="standard_car" route="S_N" depart="7.0" />    <vehicle id="S_N_143" type="standard_car" route="S_N" depart="7.0" />    <vehicle id="S_N_144" type="standard_car" route="S_N" depart="8.0" />    <vehicle id="N_S_145" type="standard_car" route="N_S" depart="8.0" />    <vehicle id="W_E_146" type="standard_car" route="W_E" depart="8.0" />    <vehicle id="S_N_147" type="standard_car" route="S_N" depart="8.0" />    <vehicle id="E_N_148" type="standard_car" route="E_N" depart="8.0" />    <vehicle id="N_S_149" type="standard_car" route="N_S" depart="8.0" />    <vehicle id="N_S_150" type="standard_car" route="N_S" depart="8.0" />    <vehicle id="N_E_151" type="standard_car" route="N_E" depart="8.0" />    <vehicle id="S_W_152" type="standard_car" route="S_W" depart="8.0" />    <vehicle id="N_S_153" type="standard_car" route="N_S" depart="8.0" />    <vehicle id="E_W_154" type="standard_car" route="E_W" depart="8.0" />    <vehicle id="N_S_155" type="standard_car" route="N_S" depart="8.0" />    <vehicle id="E_W_156" type="standard_car" route="E_W" depart="8.0" />    <vehicle id="N_S_157" type="standard_car" route="N_S" depart="8.0" />    <vehicle id="S_N_158" type="standard_car" route="S_N" depart="8.0" />    <vehicle id="W_E_159" type="standard_car" route="W_E" depart="8.0" />    <vehicle id="S_W_160" type="standard_car" route="S_W" depart="8.0" />    <vehicle id="N_S_161" type="standard_car" route="N_S" depart="8.0" />    <vehicle id="N_E_162" type="standard_car" route="N_E" depart="8.0" />    <vehicle id="N_W_163" type="standard_car" route="N_W" depart="8.0" />    <vehicle id="S_W_164" type="standard_car" route="S_W" depart="8.0" />    <vehicle id="N_S_165" type="standard_car" route="N_S" depart="8.0" />    <vehicle id="N_S_166" type="standard_car" route="N_S" depart="8.0" />    <vehicle id="E_W_167" type="standard_car" route="E_W" depart="8.0" />    <vehicle id="S_W_168" type="standard_car" route="S_W" depart="8.0" />    <vehicle id="E_W_169" type="standard_car" route="E_W" depart="8.0" />    <vehicle id="N_E_170" type="standard_car" route="N_E" depart="8.0" />    <vehicle id="N_S_171" type="standard_car" route="N_S" depart="8.0" />    <vehicle id="N_S_172" type="standard_car" route="N_S" depart="8.0" />    <vehicle id="N_S_173" type="standard_car" route="N_S" depart="8.0" />    <vehicle id="S_N_174" type="standard_car" route="S_N" depart="8.0" />    <vehicle id="N_S_175" type="standard_car" route="N_S" depart="8.0" />    <vehicle id="S_N_176" type="standard_car" route="S_N" depart="8.0" />    <vehicle id="E_S_177" type="standard_car" route="E_S" depart="8.0" />    <vehicle id="S_E_178" type="standard_car" route="N_E" depart="8.0" />    <vehicle id="N_S_179" type="standard_car" route="N_S" depart="8.0" />    <vehicle id="S_N_180" type="standard_car" route="S_N" depart="8.0" />    <vehicle id="S_N_181" type="standard_car" route="S_N" depart="8.0" />    <vehicle id="N_S_182" type="standard_car" route="N_S" depart="8.0" />    <vehicle id="N_S_183" type="standard_car" route="N_S" depart="8.0" />    <vehicle id="S_N_184" type="standard_car" route="S_N" depart="8.0" />    <vehicle id="N_S_185" type="standard_car" route="N_S" depart="8.0" />    <vehicle id="N_W_186" type="standard_car" route="N_W" depart="8.0" />    <vehicle id="W_E_187" type="standard_car" route="W_E" depart="8.0" />    <vehicle id="N_E_188" type="standard_car" route="N_E" depart="8.0" />    <vehicle id="N_W_189" type="standard_car" route="N_W" depart="8.0" />    <vehicle id="N_S_190" type="standard_car" route="N_S" depart="9.0" />    <vehicle id="S_N_191" type="standard_car" route="S_N" depart="9.0" />    <vehicle id="N_S_192" type="standard_car" route="N_S" depart="9.0" />    <vehicle id="E_S_193" type="standard_car" route="E_S" depart="9.0" />    <vehicle id="W_E_194" type="standard_car" route="W_E" depart="9.0" />    <vehicle id="S_W_195" type="standard_car" route="S_W" depart="9.0" />    <vehicle id="S_N_196" type="standard_car" route="S_N" depart="9.0" />    <vehicle id="N_S_197" type="standard_car" route="N_S" depart="9.0" />    <vehicle id="S_N_198" type="standard_car" route="S_N" depart="9.0" />    <vehicle id="W_S_199" type="standard_car" route="W_S" depart="9.0" />    <vehicle id="S_N_200" type="standard_car" route="S_N" depart="9.0" />    <vehicle id="E_W_201" type="standard_car" route="E_W" depart="9.0" />    <vehicle id="S_N_202" type="standard_car" route="S_N" depart="9.0" />    <vehicle id="N_S_203" type="standard_car" route="N_S" depart="9.0" />    <vehicle id="N_S_204" type="standard_car" route="N_S" depart="9.0" />    <vehicle id="S_N_205" type="standard_car" route="S_N" depart="9.0" />    <vehicle id="S_N_206" type="standard_car" route="S_N" depart="9.0" />    <vehicle id="S_N_207" type="standard_car" route="S_N" depart="9.0" />    <vehicle id="S_N_208" type="standard_car" route="S_N" depart="9.0" />    <vehicle id="S_N_209" type="standard_car" route="S_N" depart="9.0" />    <vehicle id="S_N_210" type="standard_car" route="S_N" depart="9.0" />    <vehicle id="W_E_211" type="standard_car" route="W_E" depart="9.0" />    <vehicle id="W_N_212" type="standard_car" route="W_N" depart="9.0" />    <vehicle id="N_S_213" type="standard_car" route="N_S" depart="9.0" />    <vehicle id="S_N_214" type="standard_car" route="S_N" depart="9.0" />    <vehicle id="S_N_215" type="standard_car" route="S_N" depart="9.0" />    <vehicle id="S_N_216" type="standard_car" route="S_N" depart="9.0" />    <vehicle id="N_S_217" type="standard_car" route="N_S" depart="9.0" />    <vehicle id="N_S_218" type="standard_car" route="N_S" depart="9.0" />    <vehicle id="S_E_219" type="standard_car" route="N_E" depart="9.0" />    <vehicle id="N_S_220" type="standard_car" route="N_S" depart="9.0" />    <vehicle id="S_N_221" type="standard_car" route="S_N" depart="9.0" />    <vehicle id="E_W_222" type="standard_car" route="E_W" depart="9.0" />    <vehicle id="S_N_223" type="standard_car" route="S_N" depart="9.0" />    <vehicle id="S_N_224" type="standard_car" route="S_N" depart="9.0" />    <vehicle id="S_N_225" type="standard_car" route="S_N" depart="9.0" />    <vehicle id="N_S_226" type="standard_car" route="N_S" depart="9.0" />    <vehicle id="S_N_227" type="standard_car" route="S_N" depart="9.0" />    <vehicle id="N_S_228" type="standard_car" route="N_S" depart="9.0" />    <vehicle id="N_S_229" type="standard_car" route="N_S" depart="9.0" />    <vehicle id="N_S_230" type="standard_car" route="N_S" depart="9.0" />    <vehicle id="S_N_231" type="standard_car" route="S_N" depart="9.0" />    <vehicle id="N_W_232" type="standard_car" route="N_W" depart="9.0" />    <vehicle id="S_W_233" type="standard_car" route="S_W" depart="9.0" />    <vehicle id="S_N_234" type="standard_car" route="S_N" depart="10.0" />    <vehicle id="S_N_235" type="standard_car" route="S_N" depart="10.0" />    <vehicle id="N_S_236" type="standard_car" route="N_S" depart="10.0" />    <vehicle id="S_N_237" type="standard_car" route="S_N" depart="10.0" />    <vehicle id="N_E_238" type="standard_car" route="N_E" depart="10.0" />    <vehicle id="N_S_239" type="standard_car" route="N_S" depart="10.0" />    <vehicle id="N_W_240" type="standard_car" route="N_W" depart="10.0" />    <vehicle id="N_S_241" type="standard_car" route="N_S" depart="10.0" />    <vehicle id="S_N_242" type="standard_car" route="S_N" depart="10.0" />    <vehicle id="S_W_243" type="standard_car" route="S_W" depart="10.0" />    <vehicle id="S_N_244" type="standard_car" route="S_N" depart="10.0" />    <vehicle id="S_N_245" type="standard_car" route="S_N" depart="10.0" />    <vehicle id="E_W_246" type="standard_car" route="E_W" depart="10.0" />    <vehicle id="S_N_247" type="standard_car" route="S_N" depart="10.0" />    <vehicle id="N_W_248" type="standard_car" route="N_W" depart="10.0" />    <vehicle id="S_N_249" type="standard_car" route="S_N" depart="10.0" />    <vehicle id="S_N_250" type="standard_car" route="S_N" depart="10.0" />    <vehicle id="N_S_251" type="standard_car" route="N_S" depart="10.0" />    <vehicle id="S_N_252" type="standard_car" route="S_N" depart="10.0" />    <vehicle id="S_E_253" type="standard_car" route="N_E" depart="10.0" />    <vehicle id="S_N_254" type="standard_car" route="S_N" depart="10.0" />    <vehicle id="N_E_255" type="standard_car" route="N_E" depart="10.0" />    <vehicle id="S_W_256" type="standard_car" route="S_W" depart="10.0" />    <vehicle id="W_N_257" type="standard_car" route="W_N" depart="10.0" />    <vehicle id="N_S_258" type="standard_car" route="N_S" depart="10.0" />    <vehicle id="N_E_259" type="standard_car" route="N_E" depart="10.0" />    <vehicle id="N_W_260" type="standard_car" route="N_W" depart="10.0" />    <vehicle id="S_W_261" type="standard_car" route="S_W" depart="10.0" />    <vehicle id="W_E_262" type="standard_car" route="W_E" depart="10.0" />    <vehicle id="S_N_263" type="standard_car" route="S_N" depart="10.0" />    <vehicle id="N_E_264" type="standard_car" route="N_E" depart="10.0" />    <vehicle id="S_W_265" type="standard_car" route="S_W" depart="10.0" />    <vehicle id="S_N_266" type="standard_car" route="S_N" depart="10.0" />    <vehicle id="S_N_267" type="standard_car" route="S_N" depart="10.0" />    <vehicle id="N_W_268" type="standard_car" route="N_W" depart="10.0" />    <vehicle id="E_W_269" type="standard_car" route="E_W" depart="10.0" />    <vehicle id="S_E_270" type="standard_car" route="N_E" depart="10.0" />    <vehicle id="N_S_271" type="standard_car" route="N_S" depart="10.0" />    <vehicle id="N_S_272" type="standard_car" route="N_S" depart="10.0" />    <vehicle id="N_S_273" type="standard_car" route="N_S" depart="10.0" />    <vehicle id="S_N_274" type="standard_car" route="S_N" depart="10.0" />    <vehicle id="N_S_275" type="standard_car" route="N_S" depart="10.0" />    <vehicle id="N_S_276" type="standard_car" route="N_S" depart="10.0" />    <vehicle id="S_W_277" type="standard_car" route="S_W" depart="10.0" />    <vehicle id="S_N_278" type="standard_car" route="S_N" depart="10.0" />    <vehicle id="N_E_279" type="standard_car" route="N_E" depart="10.0" />    <vehicle id="N_W_280" type="standard_car" route="N_W" depart="10.0" />    <vehicle id="S_N_281" type="standard_car" route="S_N" depart="10.0" />    <vehicle id="S_N_282" type="standard_car" route="S_N" depart="10.0" />    <vehicle id="S_N_283" type="standard_car" route="S_N" depart="10.0" />    <vehicle id="S_N_284" type="standard_car" route="S_N" depart="10.0" />    <vehicle id="S_E_285" type="standard_car" route="N_E" depart="10.0" />    <vehicle id="N_S_286" type="standard_car" route="N_S" depart="11.0" />    <vehicle id="S_N_287" type="standard_car" route="S_N" depart="11.0" />    <vehicle id="S_N_288" type="standard_car" route="S_N" depart="11.0" />    <vehicle id="S_N_289" type="standard_car" route="S_N" depart="11.0" />    <vehicle id="S_N_290" type="standard_car" route="S_N" depart="11.0" />    <vehicle id="E_W_291" type="standard_car" route="E_W" depart="11.0" />    <vehicle id="S_N_292" type="standard_car" route="S_N" depart="11.0" />    <vehicle id="S_N_293" type="standard_car" route="S_N" depart="11.0" />    <vehicle id="N_S_294" type="standard_car" route="N_S" depart="11.0" />    <vehicle id="S_N_295" type="standard_car" route="S_N" depart="11.0" />    <vehicle id="S_N_296" type="standard_car" route="S_N" depart="11.0" />    <vehicle id="S_E_297" type="standard_car" route="N_E" depart="11.0" />    <vehicle id="S_W_298" type="standard_car" route="S_W" depart="11.0" />    <vehicle id="N_S_299" type="standard_car" route="N_S" depart="11.0" />    <vehicle id="S_N_300" type="standard_car" route="S_N" depart="11.0" />    <vehicle id="N_W_301" type="standard_car" route="N_W" depart="11.0" />    <vehicle id="S_N_302" type="standard_car" route="S_N" depart="11.0" />    <vehicle id="S_N_303" type="standard_car" route="S_N" depart="11.0" />    <vehicle id="W_E_304" type="standard_car" route="W_E" depart="11.0" />    <vehicle id="S_N_305" type="standard_car" route="S_N" depart="11.0" />    <vehicle id="N_S_306" type="standard_car" route="N_S" depart="11.0" />    <vehicle id="N_S_307" type="standard_car" route="N_S" depart="11.0" />    <vehicle id="N_S_308" type="standard_car" route="N_S" depart="11.0" />    <vehicle id="S_N_309" type="standard_car" route="S_N" depart="11.0" />    <vehicle id="N_S_310" type="standard_car" route="N_S" depart="11.0" />    <vehicle id="N_E_311" type="standard_car" route="N_E" depart="11.0" />    <vehicle id="S_E_312" type="standard_car" route="N_E" depart="11.0" />    <vehicle id="W_E_313" type="standard_car" route="W_E" depart="11.0" />    <vehicle id="S_N_314" type="standard_car" route="S_N" depart="11.0" />    <vehicle id="N_W_315" type="standard_car" route="N_W" depart="11.0" />    <vehicle id="S_N_316" type="standard_car" route="S_N" depart="11.0" />    <vehicle id="N_S_317" type="standard_car" route="N_S" depart="11.0" />    <vehicle id="N_S_318" type="standard_car" route="N_S" depart="11.0" />    <vehicle id="E_W_319" type="standard_car" route="E_W" depart="11.0" />    <vehicle id="S_N_320" type="standard_car" route="S_N" depart="11.0" />    <vehicle id="S_E_321" type="standard_car" route="N_E" depart="11.0" />    <vehicle id="W_E_322" type="standard_car" route="W_E" depart="11.0" />    <vehicle id="N_S_323" type="standard_car" route="N_S" depart="11.0" />    <vehicle id="W_E_324" type="standard_car" route="W_E" depart="11.0" />    <vehicle id="N_W_325" type="standard_car" route="N_W" depart="11.0" />    <vehicle id="N_S_326" type="standard_car" route="N_S" depart="11.0" />    <vehicle id="N_E_327" type="standard_car" route="N_E" depart="11.0" />    <vehicle id="S_W_328" type="standard_car" route="S_W" depart="11.0" />    <vehicle id="N_S_329" type="standard_car" route="N_S" depart="11.0" />    <vehicle id="N_S_330" type="standard_car" route="N_S" depart="11.0" />    <vehicle id="S_N_331" type="standard_car" route="S_N" depart="11.0" />    <vehicle id="N_S_332" type="standard_car" route="N_S" depart="11.0" />    <vehicle id="N_S_333" type="standard_car" route="N_S" depart="11.0" />    <vehicle id="N_W_334" type="standard_car" route="N_W" depart="11.0" />    <vehicle id="N_S_335" type="standard_car" route="N_S" depart="11.0" />    <vehicle id="N_S_336" type="standard_car" route="N_S" depart="11.0" />    <vehicle id="N_W_337" type="standard_car" route="N_W" depart="11.0" />    <vehicle id="S_N_338" type="standard_car" route="S_N" depart="11.0" />    <vehicle id="N_S_339" type="standard_car" route="N_S" depart="11.0" />    <vehicle id="S_N_340" type="standard_car" route="S_N" depart="11.0" />    <vehicle id="S_N_341" type="standard_car" route="S_N" depart="11.0" />    <vehicle id="N_S_342" type="standard_car" route="N_S" depart="11.0" />    <vehicle id="S_N_343" type="standard_car" route="S_N" depart="11.0" />    <vehicle id="N_S_344" type="standard_car" route="N_S" depart="11.0" />    <vehicle id="S_W_345" type="standard_car" route="S_W" depart="11.0" />    <vehicle id="W_E_346" type="standard_car" route="W_E" depart="11.0" />    <vehicle id="S_N_347" type="standard_car" route="S_N" depart="11.0" />    <vehicle id="N_W_348" type="standard_car" route="N_W" depart="11.0" />    <vehicle id="S_E_349" type="standard_car" route="N_E" depart="11.0" />    <vehicle id="N_E_350" type="standard_car" route="N_E" depart="11.0" />    <vehicle id="N_S_351" type="standard_car" route="N_S" depart="12.0" />    <vehicle id="S_N_352" type="standard_car" route="S_N" depart="12.0" />    <vehicle id="N_S_353" type="standard_car" route="N_S" depart="12.0" />    <vehicle id="N_S_354" type="standard_car" route="N_S" depart="12.0" />    <vehicle id="N_S_355" type="standard_car" route="N_S" depart="12.0" />    <vehicle id="N_W_356" type="standard_car" route="N_W" depart="12.0" />    <vehicle id="N_W_357" type="standard_car" route="N_W" depart="12.0" />    <vehicle id="S_N_358" type="standard_car" route="S_N" depart="12.0" />    <vehicle id="N_S_359" type="standard_car" route="N_S" depart="12.0" />    <vehicle id="S_N_360" type="standard_car" route="S_N" depart="12.0" />    <vehicle id="S_N_361" type="standard_car" route="S_N" depart="12.0" />    <vehicle id="N_S_362" type="standard_car" route="N_S" depart="12.0" />    <vehicle id="N_S_363" type="standard_car" route="N_S" depart="12.0" />    <vehicle id="N_S_364" type="standard_car" route="N_S" depart="12.0" />    <vehicle id="N_E_365" type="standard_car" route="N_E" depart="12.0" />    <vehicle id="E_W_366" type="standard_car" route="E_W" depart="12.0" />    <vehicle id="N_S_367" type="standard_car" route="N_S" depart="12.0" />    <vehicle id="N_S_368" type="standard_car" route="N_S" depart="12.0" />    <vehicle id="S_N_369" type="standard_car" route="S_N" depart="12.0" />    <vehicle id="N_S_370" type="standard_car" route="N_S" depart="12.0" />    <vehicle id="S_W_371" type="standard_car" route="S_W" depart="12.0" />    <vehicle id="W_N_372" type="standard_car" route="W_N" depart="12.0" />    <vehicle id="S_N_373" type="standard_car" route="S_N" depart="12.0" />    <vehicle id="N_S_374" type="standard_car" route="N_S" depart="12.0" />    <vehicle id="N_W_375" type="standard_car" route="N_W" depart="12.0" />    <vehicle id="S_E_376" type="standard_car" route="N_E" depart="12.0" />    <vehicle id="S_N_377" type="standard_car" route="S_N" depart="12.0" />    <vehicle id="N_E_378" type="standard_car" route="N_E" depart="12.0" />    <vehicle id="S_N_379" type="standard_car" route="S_N" depart="12.0" />    <vehicle id="S_N_380" type="standard_car" route="S_N" depart="12.0" />    <vehicle id="S_N_381" type="standard_car" route="S_N" depart="12.0" />    <vehicle id="N_W_382" type="standard_car" route="N_W" depart="12.0" />    <vehicle id="S_N_383" type="standard_car" route="S_N" depart="12.0" />    <vehicle id="E_W_384" type="standard_car" route="E_W" depart="12.0" />    <vehicle id="N_S_385" type="standard_car" route="N_S" depart="12.0" />    <vehicle id="W_E_386" type="standard_car" route="W_E" depart="12.0" />    <vehicle id="S_N_387" type="standard_car" route="S_N" depart="12.0" />    <vehicle id="N_E_388" type="standard_car" route="N_E" depart="12.0" />    <vehicle id="W_E_389" type="standard_car" route="W_E" depart="12.0" />    <vehicle id="S_E_390" type="standard_car" route="N_E" depart="12.0" />    <vehicle id="E_W_391" type="standard_car" route="E_W" depart="12.0" />    <vehicle id="N_S_392" type="standard_car" route="N_S" depart="12.0" />    <vehicle id="N_S_393" type="standard_car" route="N_S" depart="12.0" />    <vehicle id="S_N_394" type="standard_car" route="S_N" depart="12.0" />    <vehicle id="N_S_395" type="standard_car" route="N_S" depart="12.0" />    <vehicle id="S_E_396" type="standard_car" route="N_E" depart="12.0" />    <vehicle id="S_W_397" type="standard_car" route="S_W" depart="12.0" />    <vehicle id="N_S_398" type="standard_car" route="N_S" depart="12.0" />    <vehicle id="S_N_399" type="standard_car" route="S_N" depart="12.0" />    <vehicle id="N_S_400" type="standard_car" route="N_S" depart="12.0" />    <vehicle id="W_E_401" type="standard_car" route="W_E" depart="12.0" /