<routes>
    <vType accel="1.0" decel="4.5" id="standard_car" length="5.0" minGap="2.5" maxSpeed="25" sigma="0.5" />

    <route id="W_N" edges="W2TL TL2N"/>
    <route id="W_E" edges="W2TL TL2E"/>
    <route id="W_S" edges="W2TL TL2S"/>
    <route id="N_W" edges="N2TL TL2W"/>
    <route id="N_E" edges="N2TL TL2E"/>
    <route id="N_S" edges="N2TL TL2S"/>
    <route id="E_W" edges="E2TL TL2W"/>
    <route id="E_N" edges="E2TL TL2N"/>
    <route id="E_S" edges="E2TL TL2S"/>
    <route id="S_W" edges="S2TL TL2W"/>
    <route id="S_N" edges="S2TL TL2N"/>
    <route id="S_E" edges="S2TL TL2E"/>    <vehicle id="E_W_0" type="standard_car" route="E_W" depart="28.0" />    <vehicle id="E_W_1" type="standard_car" route="E_W" depart="29.0" />    <vehicle id="W_E_2" type="standard_car" route="W_E" depart="31.0" />    <vehicle id="W_E_3" type="standard_car" route="W_E" depart="33.0" />    <vehicle id="E_W_4" type="standard_car" route="E_W" depart="44.0" />    <vehicle id="W_E_5" type="standard_car" route="W_E" depart="56.0" />    <vehicle id="E_N_6" type="standard_car" route="E_N" depart="71.0" />    <vehicle id="E_W_7" type="standard_car" route="E_W" depart="76.0" />    <vehicle id="W_E_8" type="standard_car" route="W_E" depart="76.0" />    <vehicle id="E_W_9" type="standard_car" route="E_W" depart="85.0" />    <vehicle id="E_N_10" type="standard_car" route="E_N" depart="86.0" />    <vehicle id="E_S_11" type="standard_car" route="E_S" depart="86.0" />    <vehicle id="E_W_12" type="standard_car" route="E_W" depart="88.0" />    <vehicle id="W_S_13" type="standard_car" route="W_S" depart="90.0" />    <vehicle id="E_W_14" type="standard_car" route="E_W" depart="90.0" />    <vehicle id="E_N_15" type="standard_car" route="E_N" depart="104.0" />    <vehicle id="E_W_16" type="standard_car" route="E_W" depart="113.0" />    <vehicle id="W_S_17" type="standard_car" route="W_S" depart="114.0" />    <vehicle id="S_E_18" type="standard_car" route="N_E" depart="122.0" />    <vehicle id="W_E_19" type="standard_car" route="W_E" depart="133.0" />    <vehicle id="W_S_20" type="standard_car" route="W_S" depart="134.0" />    <vehicle id="E_W_21" type="standard_car" route="E_W" depart="139.0" />    <vehicle id="W_S_22" type="standard_car" route="W_S" depart="140.0" />    <vehicle id="W_N_23" type="standard_car" route="W_N" depart="140.0" />    <vehicle id="W_E_24" type="standard_car" route="W_E" depart="142.0" />    <vehicle id="E_W_25" type="standard_car" route="E_W" depart="144.0" />    <vehicle id="W_E_26" type="standard_car" route="W_E" depart="145.0" />    <vehicle id="W_E_27" type="standard_car" route="W_E" depart="148.0" />    <vehicle id="E_S_28" type="standard_car" route="E_S" depart="148.0" />    <vehicle id="W_E_29" type="standard_car" route="W_E" depart="149.0" />    <vehicle id="W_E_30" type="standard_car" route="W_E" depart="150.0" />    <vehicle id="W_E_31" type="standard_car" route="W_E" depart="150.0" />    <vehicle id="N_S_32" type="standard_car" route="N_S" depart="152.0" />    <vehicle id="W_N_33" type="standard_car" route="W_N" depart="153.0" />    <vehicle id="N_S_34" type="standard_car" route="N_S" depart="154.0" />    <vehicle id="E_S_35" type="standard_car" route="E_S" depart="157.0" />    <vehicle id="W_S_36" type="standard_car" route="W_S" depart="157.0" />    <vehicle id="W_E_37" type="standard_car" route="W_E" depart="158.0" />    <vehicle id="W_E_38" type="standard_car" route="W_E" depart="158.0" />    <vehicle id="W_E_39" type="standard_car" route="W_E" depart="158.0" />    <vehicle id="E_W_40" type="standard_car" route="E_W" depart="161.0" />    <vehicle id="S_N_41" type="standard_car" route="S_N" depart="164.0" />    <vehicle id="N_S_42" type="standard_car" route="N_S" depart="168.0" />    <vehicle id="W_E_43" type="standard_car" route="W_E" depart="169.0" />    <vehicle id="E_N_44" type="standard_car" route="E_N" depart="172.0" />    <vehicle id="W_E_45" type="standard_car" route="W_E" depart="174.0" />    <vehicle id="E_W_46" type="standard_car" route="E_W" depart="179.0" />    <vehicle id="E_W_47" type="standard_car" route="E_W" depart="183.0" />    <vehicle id="W_E_48" type="standard_car" route="W_E" depart="184.0" />    <vehicle id="W_E_49" type="standard_car" route="W_E" depart="185.0" />    <vehicle id="W_E_50" type="standard_car" route="W_E" depart="188.0" />    <vehicle id="E_W_51" type="standard_car" route="E_W" depart="188.0" />    <vehicle id="W_E_52" type="standard_car" route="W_E" depart="189.0" />    <vehicle id="W_E_53" type="standard_car" route="W_E" depart="189.0" />    <vehicle id="E_W_54" type="standard_car" route="E_W" depart="193.0" />    <vehicle id="W_E_55" type="standard_car" route="W_E" depart="204.0" />    <vehicle id="W_N_56" type="standard_car" route="W_N" depart="204.0" />    <vehicle id="E_W_57" type="standard_car" route="E_W" depart="205.0" />    <vehicle id="E_N_58" type="standard_car" route="E_N" depart="206.0" />    <vehicle id="W_E_59" type="standard_car" route="W_E" depart="207.0" />    <vehicle id="E_W_60" type="standard_car" route="E_W" depart="209.0" />    <vehicle id="W_S_61" type="standard_car" route="W_S" depart="213.0" />    <vehicle id="N_S_62" type="standard_car" route="N_S" depart="214.0" />    <vehicle id="W_E_63" type="standard_car" route="W_E" depart="214.0" />    <vehicle id="E_N_64" type="standard_car" route="E_N" depart="216.0" />    <vehicle id="E_N_65" type="standard_car" route="E_N" depart="217.0" />    <vehicle id="W_N_66" type="standard_car" route="W_N" depart="222.0" />    <vehicle id="W_N_67" type="standard_car" route="W_N" depart="223.0" />    <vehicle id="E_W_68" type="standard_car" route="E_W" depart="224.0" />    <vehicle id="W_E_69" type="standard_car" route="W_E" depart="225.0" />    <vehicle id="W_E_70" type="standard_car" route="W_E" depart="226.0" />    <vehicle id="E_W_71" type="standard_car" route="E_W" depart="228.0" />    <vehicle id="E_W_72" type="standard_car" route="E_W" depart="229.0" />    <vehicle id="E_S_73" type="standard_car" route="E_S" depart="231.0" />    <vehicle id="W_E_74" type="standard_car" route="W_E" depart="232.0" />    <vehicle id="W_E_75" type="standard_car" route="W_E" depart="234.0" />    <vehicle id="S_N_76" type="standard_car" route="S_N" depart="234.0" />    <vehicle id="E_W_77" type="standard_car" route="E_W" depart="235.0" />    <vehicle id="E_W_78" type="standard_car" route="E_W" depart="235.0" />    <vehicle id="E_W_79" type="standard_car" route="E_W" depart="236.0" />    <vehicle id="S_E_80" type="standard_car" route="N_E" depart="237.0" />    <vehicle id="W_E_81" type="standard_car" route="W_E" depart="239.0" />    <vehicle id="W_N_82" type="standard_car" route="W_N" depart="243.0" />    <vehicle id="S_N_83" type="standard_car" route="S_N" depart="243.0" />    <vehicle id="E_W_84" type="standard_car" route="E_W" depart="243.0" />    <vehicle id="E_W_85" type="standard_car" route="E_W" depart="247.0" />    <vehicle id="W_E_86" type="standard_car" route="W_E" depart="247.0" />    <vehicle id="W_E_87" type="standard_car" route="W_E" depart="249.0" />    <vehicle id="W_E_88" type="standard_car" route="W_E" depart="251.0" />    <vehicle id="E_W_89" type="standard_car" route="E_W" depart="253.0" />    <vehicle id="E_W_90" type="standard_car" route="E_W" depart="257.0" />    <vehicle id="W_N_91" type="standard_car" route="W_N" depart="260.0" />    <vehicle id="N_E_92" type="standard_car" route="N_E" depart="260.0" />    <vehicle id="W_E_93" type="standard_car" route="W_E" depart="261.0" />    <vehicle id="W_E_94" type="standard_car" route="W_E" depart="262.0" />    <vehicle id="W_E_95" type="standard_car" route="W_E" depart="264.0" />    <vehicle id="W_E_96" type="standard_car" route="W_E" depart="266.0" />    <vehicle id="W_N_97" type="standard_car" route="W_N" depart="267.0" />    <vehicle id="E_W_98" type="standard_car" route="E_W" depart="268.0" />    <vehicle id="E_W_99" type="standard_car" route="E_W" depart="272.0" />    <vehicle id="W_E_100" type="standard_car" route="W_E" depart="276.0" />    <vehicle id="S_N_101" type="standard_car" route="S_N" depart="277.0" />    <vehicle id="W_E_102" type="standard_car" route="W_E" depart="277.0" />    <vehicle id="W_E_103" type="standard_car" route="W_E" depart="277.0" />    <vehicle id="E_W_104" type="standard_car" route="E_W" depart="277.0" />    <vehicle id="W_E_105" type="standard_car" route="W_E" depart="278.0" />    <vehicle id="E_W_106" type="standard_car" route="E_W" depart="282.0" />    <vehicle id="E_W_107" type="standard_car" route="E_W" depart="282.0" />    <vehicle id="W_E_108" type="standard_car" route="W_E" depart="286.0" />    <vehicle id="E_W_109" type="standard_car" route="E_W" depart="287.0" />    <vehicle id="W_S_110" type="standard_car" route="W_S" depart="290.0" />    <vehicle id="W_E_111" type="standard_car" route="W_E" depart="291.0" />    <vehicle id="N_S_112" type="standard_car" route="N_S" depart="293.0" />    <vehicle id="E_W_113" type="standard_car" route="E_W" depart="295.0" />    <vehicle id="E_W_114" type="standard_car" route="E_W" depart="298.0" />    <vehicle id="W_E_115" type="standard_car" route="W_E" depart="299.0" />    <vehicle id="E_W_116" type="standard_car" route="E_W" depart="301.0" />    <vehicle id="E_W_117" type="standard_car" route="E_W" depart="301.0" />    <vehicle id="W_E_118" type="standard_car" route="W_E" depart="301.0" />    <vehicle id="W_E_119" type="standard_car" route="W_E" depart="302.0" />    <vehicle id="W_S_120" type="standard_car" route="W_S" depart="303.0" />    <vehicle id="W_E_121" type="standard_car" route="W_E" depart="303.0" />    <vehicle id="E_W_122" type="standard_car" route="E_W" depart="303.0" />    <vehicle id="S_N_123" type="standard_car" route="S_N" depart="303.0" />    <vehicle id="W_E_124" type="standard_car" route="W_E" depart="304.0" />    <vehicle id="W_E_125" type="standard_car" route="W_E" depart="305.0" />    <vehicle id="E_W_126" type="standard_car" route="E_W" depart="305.0" />    <vehicle id="E_S_127" type="standard_car" route="E_S" depart="306.0" />    <vehicle id="E_N_128" type="standard_car" route="E_N" depart="308.0" />    <vehicle id="W_E_129" type="standard_car" route="W_E" depart="308.0" />    <vehicle id="E_W_130" type="standard_car" route="E_W" depart="309.0" />    <vehicle id="E_W_131" type="standard_car" route="E_W" depart="309.0" />    <vehicle id="W_N_132" type="standard_car" route="W_N" depart="310.0" />    <vehicle id="E_W_133" type="standard_car" route="E_W" depart="310.0" />    <vehicle id="E_W_134" type="standard_car" route="E_W" depart="310.0" />    <vehicle id="W_S_135" type="standard_car" route="W_S" depart="311.0" />    <vehicle id="E_W_136" type="standard_car" route="E_W" depart="312.0" />    <vehicle id="E_W_137" type="standard_car" route="E_W" depart="313.0" />    <vehicle id="E_W_138" type="standard_car" route="E_W" depart="313.0" />    <vehicle id="E_S_139" type="standard_car" route="E_S" depart="316.0" />    <vehicle id="E_W_140" type="standard_car" route="E_W" depart="318.0" />    <vehicle id="W_E_141" type="standard_car" route="W_E" depart="318.0" />    <vehicle id="W_S_142" type="standard_car" route="W_S" depart="319.0" />    <vehicle id="E_W_143" type="standard_car" route="E_W" depart="320.0" />    <vehicle id="E_W_144" type="standard_car" route="E_W" depart="323.0" />    <vehicle id="E_W_145" type="standard_car" route="E_W" depart="323.0" />    <vehicle id="W_E_146" type="standard_car" route="W_E" depart="324.0" />    <vehicle id="E_W_147" type="standard_car" route="E_W" depart="327.0" />    <vehicle id="W_E_148" type="standard_car" route="W_E" depart="329.0" />    <vehicle id="W_E_149" type="standard_car" route="W_E" depart="331.0" />    <vehicle id="W_E_150" type="standard_car" route="W_E" depart="331.0" />    <vehicle id="W_E_151" type="standard_car" route="W_E" depart="332.0" />    <vehicle id="E_W_152" type="standard_car" route="E_W" depart="332.0" />    <vehicle id="S_E_153" type="standard_car" route="N_E" depart="333.0" />    <vehicle id="E_W_154" type="standard_car" route="E_W" depart="333.0" />    <vehicle id="W_E_155" type="standard_car" route="W_E" depart="334.0" />    <vehicle id="W_E_156" type="standard_car" route="W_E" depart="335.0" />    <vehicle id="E_W_157" type="standard_car" route="E_W" depart="335.0" />    <vehicle id="W_E_158" type="standard_car" route="W_E" depart="339.0" />    <vehicle id="W_S_159" type="standard_car" route="W_S" depart="341.0" />    <vehicle id="E_W_160" type="standard_car" route="E_W" depart="344.0" />    <vehicle id="E_W_161" type="standard_car" route="E_W" depart="346.0" />    <vehicle id="E_W_162" type="standard_car" route="E_W" depart="346.0" />    <vehicle id="E_W_163" type="standard_car" route="E_W" depart="348.0" />    <vehicle id="E_W_164" type="standard_car" route="E_W" depart="350.0" />    <vehicle id="E_W_165" type="standard_car" route="E_W" depart="352.0" />    <vehicle id="W_E_166" type="standard_car" route="W_E" depart="352.0" />    <vehicle id="W_E_167" type="standard_car" route="W_E" depart="353.0" />    <vehicle id="W_S_168" type="standard_car" route="W_S" depart="355.0" />    <vehicle id="E_W_169" type="standard_car" route="E_W" depart="355.0" />    <vehicle id="E_W_170" type="standard_car" route="E_W" depart="355.0" />    <vehicle id="E_W_171" type="standard_car" route="E_W" depart="356.0" />    <vehicle id="E_W_172" type="standard_car" route="E_W" depart="356.0" />    <vehicle id="W_E_173" type="standard_car" route="W_E" depart="356.0" />    <vehicle id="E_W_174" type="standard_car" route="E_W" depart="357.0" />    <vehicle id="W_E_175" type="standard_car" route="W_E" depart="357.0" />    <vehicle id="W_N_176" type="standard_car" route="W_N" depart="358.0" />    <vehicle id="W_E_177" type="standard_car" route="W_E" depart="359.0" />    <vehicle id="W_E_178" type="standard_car" route="W_E" depart="360.0" />    <vehicle id="W_E_179" type="standard_car" route="W_E" depart="360.0" />    <vehicle id="E_S_180" type="standard_car" route="E_S" depart="360.0" />    <vehicle id="W_E_181" type="standard_car" route="W_E" depart="360.0" />    <vehicle id="W_E_182" type="standard_car" route="W_E" depart="361.0" />    <vehicle id="W_E_183" type="standard_car" route="W_E" depart="362.0" />    <vehicle id="W_E_184" type="standard_car" route="W_E" depart="362.0" />    <vehicle id="W_E_185" type="standard_car" route="W_E" depart="363.0" />    <vehicle id="E_W_186" type="standard_car" route="E_W" depart="364.0" />    <vehicle id="W_E_187" type="standard_car" route="W_E" depart="366.0" />    <vehicle id="W_N_188" type="standard_car" route="W_N" depart="367.0" />    <vehicle id="E_W_189" type="standard_car" route="E_W" depart="367.0" />    <vehicle id="S_N_190" type="standard_car" route="S_N" depart="368.0" />    <vehicle id="W_N_191" type="standard_car" route="W_N" depart="368.0" />    <vehicle id="W_N_192" type="standard_car" route="W_N" depart="369.0" />    <vehicle id="N_S_193" type="standard_car" route="N_S" depart="369.0" />    <vehicle id="W_E_194" type="standard_car" route="W_E" depart="370.0" />    <vehicle id="E_N_195" type="standard_car" route="E_N" depart="370.0" />    <vehicle id="N_S_196" type="standard_car" route="N_S" depart="372.0" />    <vehicle id="E_W_197" type="standard_car" route="E_W" depart="372.0" />    <vehicle id="W_E_198" type="standard_car" route="W_E" depart="372.0" />    <vehicle id="W_E_199" type="standard_car" route="W_E" depart="373.0" />    <vehicle id="S_N_200" type="standard_car" route="S_N" depart="375.0" />    <vehicle id="W_E_201" type="standard_car" route="W_E" depart="375.0" />    <vehicle id="E_W_202" type="standard_car" route="E_W" depart="377.0" />    <vehicle id="W_E_203" type="standard_car" route="W_E" depart="379.0" />    <vehicle id="W_S_204" type="standard_car" route="W_S" depart="379.0" />    <vehicle id="E_W_205" type="standard_car" route="E_W" depart="381.0" />    <vehicle id="E_W_206" type="standard_car" route="E_W" depart="381.0" />    <vehicle id="E_N_207" type="standard_car" route="E_N" depart="382.0" />    <vehicle id="E_S_208" type="standard_car" route="E_S" depart="383.0" />    <vehicle id="W_E_209" type="standard_car" route="W_E" depart="385.0" />    <vehicle id="E_W_210" type="standard_car" route="E_W" depart="385.0" />    <vehicle id="W_E_211" type="standard_car" route="W_E" depart="386.0" />    <vehicle id="E_W_212" type="standard_car" route="E_W" depart="387.0" />    <vehicle id="W_E_213" type="standard_car" route="W_E" depart="391.0" />    <vehicle id="W_E_214" type="standard_car" route="W_E" depart="392.0" />    <vehicle id="W_E_215" type="standard_car" route="W_E" depart="392.0" />    <vehicle id="E_S_216" type="standard_car" route="E_S" depart="394.0" />    <vehicle id="E_W_217" type="standard_car" route="E_W" depart="394.0" />    <vehicle id="W_S_218" type="standard_car" route="W_S" depart="399.0" />    <vehicle id="E_W_219" type="standard_car" route="E_W" depart="399.0" />    <vehicle id="E_W_220" type="standard_car" route="E_W" depart="399.0" />    <vehicle id="N_S_221" type="standard_car" route="N_S" depart="400.0" />    <vehicle id="S_N_222" type="standard_car" route="S_N" depart="401.0" />    <vehicle id="W_E_223" type="standard_car" route="W_E" depart="402.0" />    <vehicle id="W_N_224" type="standard_car" route="W_N" depart="402.0" />    <vehicle id="W_E_225" type="standard_car" route="W_E" depart="403.0" />    <vehicle id="E_W_226" type="standard_car" route="E_W" depart="404.0" />    <vehicle id="E_W_227" type="standard_car" route="E_W" depart="404.0" />    <vehicle id="E_W_228" type="standard_car" route="E_W" depart="405.0" />    <vehicle id="W_E_229" type="standard_car" route="W_E" depart="405.0" />    <vehicle id="E_W_230" type="standard_car" route="E_W" depart="407.0" />    <vehicle id="S_N_231" type="standard_car" route="S_N" depart="407.0" />    <vehicle id="W_E_232" type="standard_car" route="W_E" depart="407.0" />    <vehicle id="W_N_233" type="standard_car" route="W_N" depart="408.0" />    <vehicle id="E_W_234" type="standard_car" route="E_W" depart="408.0" />    <vehicle id="E_S_235" type="standard_car" route="E_S" depart="411.0" />    <vehicle id="W_E_236" type="standard_car" route="W_E" depart="412.0" />    <vehicle id="E_S_237" type="standard_car" route="E_S" depart="413.0" />    <vehicle id="W_E_238" type="standard_car" route="W_E" depart="414.0" />    <vehicle id="W_E_239" type="standard_car" route="W_E" depart="417.0" />    <vehicle id="E_S_240" type="standard_car" route="E_S" depart="417.0" />    <vehicle id="E_W_241" type="standard_car" route="E_W" depart="417.0" />    <vehicle id="N_S_242" type="standard_car" route="N_S" depart="417.0" />    <vehicle id="W_E_243" type="standard_car" route="W_E" depart="418.0" />    <vehicle id="E_W_244" type="standard_car" route="E_W" depart="421.0" />    <vehicle id="W_E_245" type="standard_car" route="W_E" depart="423.0" />    <vehicle id="E_W_246" type="standard_car" route="E_W" depart="424.0" />    <vehicle id="W_E_247" type="standard_car" route="W_E" depart="424.0" />    <vehicle id="S_E_248" type="standard_car" route="N_E" depart="425.0" />    <vehicle id="E_W_249" type="standard_car" route="E_W" depart="426.0" />    <vehicle id="W_E_250" type="standard_car" route="W_E" depart="428.0" />    <vehicle id="W_E_251" type="standard_car" route="W_E" depart="429.0" />    <vehicle id="W_E_252" type="standard_car" route="W_E" depart="429.0" />    <vehicle id="W_N_253" type="standard_car" route="W_N" depart="430.0" />    <vehicle id="W_E_254" type="standard_car" route="W_E" depart="431.0" />    <vehicle id="E_W_255" type="standard_car" route="E_W" depart="431.0" />    <vehicle id="W_E_256" type="standard_car" route="W_E" depart="431.0" />    <vehicle id="W_E_257" type="standard_car" route="W_E" depart="432.0" />    <vehicle id="E_N_258" type="standard_car" route="E_N" depart="436.0" />    <vehicle id="E_N_259" type="standard_car" route="E_N" depart="437.0" />    <vehicle id="E_W_260" type="standard_car" route="E_W" depart="437.0" />    <vehicle id="W_E_261" type="standard_car" route="W_E" depart="438.0" />    <vehicle id="E_N_262" type="standard_car" route="E_N" depart="439.0" />    <vehicle id="E_W_263" type="standard_car" route="E_W" depart="440.0" />    <vehicle id="W_N_264" type="standard_car" route="W_N" depart="440.0" />    <vehicle id="W_E_265" type="standard_car" route="W_E" depart="441.0" />    <vehicle id="E_W_266" type="standard_car" route="E_W" depart="443.0" />    <vehicle id="W_S_267" type="standard_car" route="W_S" depart="444.0" />    <vehicle id="E_W_268" type="standard_car" route="E_W" depart="444.0" />    <vehicle id="W_E_269" type="standard_car" route="W_E" depart="445.0" />    <vehicle id="W_S_270" type="standard_car" route="W_S" depart="448.0" />    <vehicle id="W_E_271" type="standard_car" route="W_E" depart="448.0" />    <vehicle id="W_E_272" type="standard_car" route="W_E" depart="449.0" />    <vehicle id="N_S_273" type="standard_car" route="N_S" depart="450.0" />    <vehicle id="E_W_274" type="standard_car" route="E_W" depart="451.0" />    <vehicle id="E_W_275" type="standard_car" route="E_W" depart="453.0" />    <vehicle id="E_W_276" type="standard_car" route="E_W" depart="454.0" />    <vehicle id="W_E_277" type="standard_car" route="W_E" depart="459.0" />    <vehicle id="W_E_278" type="standard_car" route="W_E" depart="460.0" />    <vehicle id="W_E_279" type="standard_car" route="W_E" depart="460.0" />    <vehicle id="N_S_280" type="standard_car" route="N_S" depart="461.0" />    <vehicle id="N_S_281" type="standard_car" route="N_S" depart="462.0" />    <vehicle id="E_W_282" type="standard_car" route="E_W" depart="463.0" />    <vehicle id="W_E_283" type="standard_car" route="W_E" depart="464.0" />    <vehicle id="E_W_284" type="standard_car" route="E_W" depart="464.0" />    <vehicle id="E_W_285" type="standard_car" route="E_W" depart="465.0" />    <vehicle id="E_W_286" type="standard_car" route="E_W" depart="466.0" />    <vehicle id="W_E_287" type="standard_car" route="W_E" depart="467.0" />    <vehicle id="E_N_288" type="standard_car" route="E_N" depart="467.0" />    <vehicle id="E_W_289" type="standard_car" route="E_W" depart="467.0" />    <vehicle id="W_E_290" type="standard_car" route="W_E" depart="467.0" />    <vehicle id="E_N_291" type="standard_car" route="E_N" depart="468.0" />    <vehicle id="E_N_292" type="standard_car" route="E_N" depart="468.0" />    <vehicle id="E_W_293" type="standard_car" route="E_W" depart="469.0" />    <vehicle id="W_E_294" type="standard_car" route="W_E" depart="470.0" />    <vehicle id="E_W_295" type="standard_car" route="E_W" depart="470.0" />    <vehicle id="W_E_296" type="standard_car" route="W_E" depart="472.0" />    <vehicle id="N_S_297" type="standard_car" route="N_S" depart="473.0" />    <vehicle id="E_W_298" type="standard_car" route="E_W" depart="474.0" />    <vehicle id="E_W_299" type="standard_car" route="E_W" depart="474.0" />    <vehicle id="E_W_300" type="standard_car" route="E_W" depart="475.0" />    <vehicle id="W_E_301" type="standard_car" route="W_E" depart="476.0" />    <vehicle id="E_W_302" type="standard_car" route="E_W" depart="476.0" />    <vehicle id="E_N_303" type="standard_car" route="E_N" depart="477.0" />    <vehicle id="E_W_304" type="standard_car" route="E_W" depart="478.0" />    <vehicle id="W_E_305" type="standard_car" route="W_E" depart="478.0" />    <vehicle id="W_E_306" type="standard_car" route="W_E" depart="480.0" />    <vehicle id="E_W_307" type="standard_car" route="E_W" depart="480.0" />    <vehicle id="S_W_308" type="standard_car" route="S_W" depart="481.0" />    <vehicle id="E_W_309" type="standard_car" route="E_W" depart="482.0" />    <vehicle id="E_W_310" type="standard_car" route="E_W" depart="482.0" />    <vehicle id="W_N_311" type="standard_car" route="W_N" depart="484.0" />    <vehicle id="N_S_312" type="standard_car" route="N_S" depart="484.0" />    <vehicle id="N_E_313" type="standard_car" route="N_E" depart="485.0" />    <vehicle id="E_W_314" type="standard_car" route="E_W" depart="487.0" />    <vehicle id="E_W_315" type="standard_car" route="E_W" depart="487.0" />    <vehicle id="E_S_316" type="standard_car" route="E_S" depart="487.0" />    <vehicle id="E_W_317" type="standard_car" route="E_W" depart="489.0" />    <vehicle id="E_W_318" type="standard_car" route="E_W" depart="489.0" />    <vehicle id="E_W_319" type="standard_car" route="E_W" depart="489.0" />    <vehicle id="E_W_320" type="standard_car" route="E_W" depart="489.0" />    <vehicle id="E_W_321" type="standard_car" route="E_W" depart="490.0" />    <vehicle id="W_E_322" type="standard_car" route="W_E" depart="491.0" />    <vehicle id="S_N_323" type="standard_car" route="S_N" depart="491.0" />    <vehicle id="W_E_324" type="standard_car" route="W_E" depart="491.0" />    <vehicle id="E_S_325" type="standard_car" route="E_S" depart="491.0" />    <vehicle id="E_W_326" type="standard_car" route="E_W" depart="492.0" />    <vehicle id="W_E_327" type="standard_car" route="W_E" depart="494.0" />    <vehicle id="N_S_328" type="standard_car" route="N_S" depart="495.0" />    <vehicle id="W_E_329" type="standard_car" route="W_E" depart="495.0" />    <vehicle id="S_N_330" type="standard_car" route="S_N" depart="496.0" />    <vehicle id="E_W_331" type="standard_car" route="E_W" depart="496.0" />    <vehicle id="W_E_332" type="standard_car" route="W_E" depart="496.0" />    <vehicle id="W_E_333" type="standard_car" route="W_E" depart="497.0" />    <vehicle id="W_E_334" type="standard_car" route="W_E" depart="499.0" />    <vehicle id="E_W_335" type="standard_car" route="E_W" depart="500.0" />    <vehicle id="E_S_336" type="standard_car" route="E_S" depart="500.0" />    <vehicle id="W_N_337" type="standard_car" route="W_N" depart="500.0" />    <vehicle id="W_E_338" type="standard_car" route="W_E" depart="500.0" />    <vehicle id="W_S_339" type="standard_car" route="W_S" depart="501.0" />    <vehicle id="W_E_340" type="standard_car" route="W_E" depart="505.0" />    <vehicle id="E_W_341" type="standard_car" route="E_W" depart="505.0" />    <vehicle id="W_N_342" type="standard_car" route="W_N" depart="506.0" />    <vehicle id="E_N_343" type="standard_car" route="E_N" depart="507.0" />    <vehicle id="E_W_344" type="standard_car" route="E_W" depart="508.0" />    <vehicle id="W_N_345" type="standard_car" route="W_N" depart="508.0" />    <vehicle id="W_E_346" type="standard_car" route="W_E" depart="508.0" />    <vehicle id="N_S_347" type="standard_car" route="N_S" depart="509.0" />    <vehicle id="S_N_348" type="standard_car" route="S_N" depart="509.0" />    <vehicle id="W_E_349" type="standard_car" route="W_E" depart="509.0" />    <vehicle id="W_S_350" type="standard_car" route="W_S" depart="510.0" />    <vehicle id="E_W_351" type="standard_car" route="E_W" depart="510.0" />    <vehicle id="W_E_352" type="standard_car" route="W_E" depart="510.0" />    <vehicle id="E_W_353" type="standard_car" route="E_W" depart="511.0" />    <vehicle id="E_S_354" type="standard_car" route="E_S" depart="511.0" />    <vehicle id="S_N_355" type="standard_car" route="S_N" depart="511.0" />    <vehicle id="E_W_356" type="standard_car" route="E_W" depart="512.0" />    <vehicle id="W_E_357" type="standard_car" route="W_E" depart="512.0" />    <vehicle id="E_W_358" type="standard_car" route="E_W" depart="513.0" />    <vehicle id="W_E_359" type="standard_car" route="W_E" depart="514.0" />    <vehicle id="E_S_360" type="standard_car" route="E_S" depart="514.0" />    <vehicle id="E_W_361" type="standard_car" route="E_W" depart="516.0" />    <vehicle id="E_W_362" type="standard_car" route="E_W" depart="517.0" />    <vehicle id="W_E_363" type="standard_car" route="W_E" depart="517.0" />    <vehicle id="E_W_364" type="standard_car" route="E_W" depart="518.0" />    <vehicle id="E_W_365" type="standard_car" route="E_W" depart="519.0" />    <vehicle id="E_W_366" type="standard_car" route="E_W" depart="521.0" />    <vehicle id="W_E_367" type="standard_car" route="W_E" depart="521.0" />    <vehicle id="E_N_368" type="standard_car" route="E_N" depart="522.0" />    <vehicle id="W_E_369" type="standard_car" route="W_E" depart="522.0" />    <vehicle id="W_E_370" type="standard_car" route="W_E" depart="522.0" />    <vehicle id="E_N_371" type="standard_car" route="E_N" depart="523.0" />    <vehicle id="S_N_372" type="standard_car" route="S_N" depart="525.0" />    <vehicle id="W_E_373" type="standard_car" route="W_E" depart="528.0" />    <vehicle id="N_S_374" type="standard_car" route="N_S" depart="528.0" />    <vehicle id="W_E_375" type="standard_car" route="W_E" depart="529.0" />    <vehicle id="E_W_376" type="standard_car" route="E_W" depart="529.0" />    <vehicle id="W_E_377" type="standard_car" route="W_E" depart="529.0" />    <vehicle id="W_E_378" type="standard_car" route="W_E" depart="530.0" />    <vehicle id="W_E_379" type="standard_car" route="W_E" depart="532.0" />    <vehicle id="E_W_380" type="standard_car" route="E_W" depart="533.0" />    <vehicle id="E_S_381" type="standard_car" route="E_S" depart="533.0" />    <vehicle id="W_S_382" type="standard_car" route="W_S" depart="534.0" />    <vehicle id="E_W_383" type="standard_car" route="E_W" depart="535.0" />    <vehicle id="E_W_384" type="standard_car" route="E_W" depart="536.0" />    <vehicle id="N_S_385" type="standard_car" route="N_S" depart="537.0" />    <vehicle id="S_N_386" type="standard_car" route="S_N" depart="537.0" />    <vehicle id="W_E_387" type="standard_car" route="W_E" depart="537.0" />    <vehicle id="E_W_388" type="standard_car" route="E_W" depart="538.0" />    <vehicle id="W_E_389" type="standard_car" route="W_E" depart="538.0" />    <vehicle id="W_E_390" type="standard_car" route="W_E" depart="539.0" />    <vehicle id="W_E_391" type="standard_car" route="W_E" depart="539.0" />    <vehicle id="W_E_392" type="standard_car" route="W_E" depart="540.0" />    <vehicle id="W_N_393" type="standard_car" route="