<routes>
    <vType accel="1.0" decel="4.5" id="standard_car" length="5.0" minGap="2.5" maxSpeed="25" sigma="0.5" />

    <route id="W_N" edges="W2TL TL2N"/>
    <route id="W_E" edges="W2TL TL2E"/>
    <route id="W_S" edges="W2TL TL2S"/>
    <route id="N_W" edges="N2TL TL2W"/>
    <route id="N_E" edges="N2TL TL2E"/>
    <route id="N_S" edges="N2TL TL2S"/>
    <route id="E_W" edges="E2TL TL2W"/>
    <route id="E_N" edges="E2TL TL2N"/>
    <route id="E_S" edges="E2TL TL2S"/>
    <route id="S_W" edges="S2TL TL2W"/>
    <route id="S_N" edges="S2TL TL2N"/>
    <route id="S_E" edges="S2TL TL2E"/>    <vehicle id="E_W_0" type="standard_car" route="E_W" depart="18.0" />    <vehicle id="W_S_1" type="standard_car" route="W_S" depart="19.0" />    <vehicle id="E_W_2" type="standard_car" route="E_W" depart="26.0" />    <vehicle id="E_W_3" type="standard_car" route="E_W" depart="28.0" />    <vehicle id="E_N_4" type="standard_car" route="E_N" depart="31.0" />    <vehicle id="W_E_5" type="standard_car" route="W_E" depart="41.0" />    <vehicle id="W_E_6" type="standard_car" route="W_E" depart="45.0" />    <vehicle id="W_E_7" type="standard_car" route="W_E" depart="47.0" />    <vehicle id="N_S_8" type="standard_car" route="N_S" depart="50.0" />    <vehicle id="W_E_9" type="standard_car" route="W_E" depart="57.0" />    <vehicle id="W_E_10" type="standard_car" route="W_E" depart="61.0" />    <vehicle id="W_E_11" type="standard_car" route="W_E" depart="61.0" />    <vehicle id="W_E_12" type="standard_car" route="W_E" depart="65.0" />    <vehicle id="W_E_13" type="standard_car" route="W_E" depart="70.0" />    <vehicle id="W_E_14" type="standard_car" route="W_E" depart="74.0" />    <vehicle id="E_W_15" type="standard_car" route="E_W" depart="76.0" />    <vehicle id="W_E_16" type="standard_car" route="W_E" depart="79.0" />    <vehicle id="E_N_17" type="standard_car" route="E_N" depart="80.0" />    <vehicle id="W_N_18" type="standard_car" route="W_N" depart="81.0" />    <vehicle id="W_N_19" type="standard_car" route="W_N" depart="87.0" />    <vehicle id="E_W_20" type="standard_car" route="E_W" depart="89.0" />    <vehicle id="E_W_21" type="standard_car" route="E_W" depart="93.0" />    <vehicle id="W_E_22" type="standard_car" route="W_E" depart="95.0" />    <vehicle id="W_E_23" type="standard_car" route="W_E" depart="96.0" />    <vehicle id="E_S_24" type="standard_car" route="E_S" depart="96.0" />    <vehicle id="W_E_25" type="standard_car" route="W_E" depart="97.0" />    <vehicle id="E_W_26" type="standard_car" route="E_W" depart="100.0" />    <vehicle id="W_E_27" type="standard_car" route="W_E" depart="105.0" />    <vehicle id="W_E_28" type="standard_car" route="W_E" depart="108.0" />    <vehicle id="E_W_29" type="standard_car" route="E_W" depart="108.0" />    <vehicle id="E_W_30" type="standard_car" route="E_W" depart="110.0" />    <vehicle id="W_E_31" type="standard_car" route="W_E" depart="111.0" />    <vehicle id="E_N_32" type="standard_car" route="E_N" depart="112.0" />    <vehicle id="W_E_33" type="standard_car" route="W_E" depart="114.0" />    <vehicle id="W_E_34" type="standard_car" route="W_E" depart="115.0" />    <vehicle id="N_W_35" type="standard_car" route="N_W" depart="119.0" />    <vehicle id="E_S_36" type="standard_car" route="E_S" depart="119.0" />    <vehicle id="W_E_37" type="standard_car" route="W_E" depart="120.0" />    <vehicle id="E_S_38" type="standard_car" route="E_S" depart="122.0" />    <vehicle id="W_E_39" type="standard_car" route="W_E" depart="122.0" />    <vehicle id="W_S_40" type="standard_car" route="W_S" depart="124.0" />    <vehicle id="E_W_41" type="standard_car" route="E_W" depart="129.0" />    <vehicle id="E_W_42" type="standard_car" route="E_W" depart="135.0" />    <vehicle id="E_S_43" type="standard_car" route="E_S" depart="138.0" />    <vehicle id="W_E_44" type="standard_car" route="W_E" depart="138.0" />    <vehicle id="W_E_45" type="standard_car" route="W_E" depart="141.0" />    <vehicle id="E_N_46" type="standard_car" route="E_N" depart="142.0" />    <vehicle id="E_N_47" type="standard_car" route="E_N" depart="143.0" />    <vehicle id="W_E_48" type="standard_car" route="W_E" depart="144.0" />    <vehicle id="E_S_49" type="standard_car" route="E_S" depart="145.0" />    <vehicle id="E_W_50" type="standard_car" route="E_W" depart="148.0" />    <vehicle id="W_E_51" type="standard_car" route="W_E" depart="151.0" />    <vehicle id="W_E_52" type="standard_car" route="W_E" depart="156.0" />    <vehicle id="E_W_53" type="standard_car" route="E_W" depart="160.0" />    <vehicle id="E_W_54" type="standard_car" route="E_W" depart="166.0" />    <vehicle id="W_E_55" type="standard_car" route="W_E" depart="169.0" />    <vehicle id="E_W_56" type="standard_car" route="E_W" depart="170.0" />    <vehicle id="W_E_57" type="standard_car" route="W_E" depart="170.0" />    <vehicle id="E_W_58" type="standard_car" route="E_W" depart="171.0" />    <vehicle id="E_W_59" type="standard_car" route="E_W" depart="174.0" />    <vehicle id="W_E_60" type="standard_car" route="W_E" depart="175.0" />    <vehicle id="W_E_61" type="standard_car" route="W_E" depart="177.0" />    <vehicle id="N_S_62" type="standard_car" route="N_S" depart="178.0" />    <vehicle id="E_W_63" type="standard_car" route="E_W" depart="179.0" />    <vehicle id="E_W_64" type="standard_car" route="E_W" depart="179.0" />    <vehicle id="W_E_65" type="standard_car" route="W_E" depart="181.0" />    <vehicle id="W_E_66" type="standard_car" route="W_E" depart="183.0" />    <vehicle id="W_S_67" type="standard_car" route="W_S" depart="183.0" />    <vehicle id="W_S_68" type="standard_car" route="W_S" depart="184.0" />    <vehicle id="E_W_69" type="standard_car" route="E_W" depart="185.0" />    <vehicle id="E_S_70" type="standard_car" route="E_S" depart="191.0" />    <vehicle id="W_E_71" type="standard_car" route="W_E" depart="191.0" />    <vehicle id="W_S_72" type="standard_car" route="W_S" depart="192.0" />    <vehicle id="W_E_73" type="standard_car" route="W_E" depart="192.0" />    <vehicle id="W_E_74" type="standard_car" route="W_E" depart="194.0" />    <vehicle id="W_N_75" type="standard_car" route="W_N" depart="198.0" />    <vehicle id="E_W_76" type="standard_car" route="E_W" depart="200.0" />    <vehicle id="W_E_77" type="standard_car" route="W_E" depart="201.0" />    <vehicle id="W_N_78" type="standard_car" route="W_N" depart="204.0" />    <vehicle id="E_W_79" type="standard_car" route="E_W" depart="205.0" />    <vehicle id="W_S_80" type="standard_car" route="W_S" depart="205.0" />    <vehicle id="E_W_81" type="standard_car" route="E_W" depart="208.0" />    <vehicle id="W_E_82" type="standard_car" route="W_E" depart="210.0" />    <vehicle id="W_S_83" type="standard_car" route="W_S" depart="212.0" />    <vehicle id="W_E_84" type="standard_car" route="W_E" depart="213.0" />    <vehicle id="N_S_85" type="standard_car" route="N_S" depart="214.0" />    <vehicle id="E_W_86" type="standard_car" route="E_W" depart="215.0" />    <vehicle id="E_W_87" type="standard_car" route="E_W" depart="215.0" />    <vehicle id="W_E_88" type="standard_car" route="W_E" depart="217.0" />    <vehicle id="W_E_89" type="standard_car" route="W_E" depart="217.0" />    <vehicle id="E_W_90" type="standard_car" route="E_W" depart="218.0" />    <vehicle id="N_W_91" type="standard_car" route="N_W" depart="219.0" />    <vehicle id="E_W_92" type="standard_car" route="E_W" depart="219.0" />    <vehicle id="E_W_93" type="standard_car" route="E_W" depart="221.0" />    <vehicle id="E_S_94" type="standard_car" route="E_S" depart="221.0" />    <vehicle id="W_E_95" type="standard_car" route="W_E" depart="223.0" />    <vehicle id="E_W_96" type="standard_car" route="E_W" depart="227.0" />    <vehicle id="E_W_97" type="standard_car" route="E_W" depart="227.0" />    <vehicle id="E_N_98" type="standard_car" route="E_N" depart="230.0" />    <vehicle id="N_S_99" type="standard_car" route="N_S" depart="232.0" />    <vehicle id="E_N_100" type="standard_car" route="E_N" depart="232.0" />    <vehicle id="E_S_101" type="standard_car" route="E_S" depart="233.0" />    <vehicle id="N_S_102" type="standard_car" route="N_S" depart="234.0" />    <vehicle id="E_S_103" type="standard_car" route="E_S" depart="234.0" />    <vehicle id="E_W_104" type="standard_car" route="E_W" depart="234.0" />    <vehicle id="E_W_105" type="standard_car" route="E_W" depart="234.0" />    <vehicle id="W_S_106" type="standard_car" route="W_S" depart="235.0" />    <vehicle id="W_N_107" type="standard_car" route="W_N" depart="237.0" />    <vehicle id="W_E_108" type="standard_car" route="W_E" depart="238.0" />    <vehicle id="W_E_109" type="standard_car" route="W_E" depart="238.0" />    <vehicle id="W_E_110" type="standard_car" route="W_E" depart="239.0" />    <vehicle id="E_W_111" type="standard_car" route="E_W" depart="240.0" />    <vehicle id="E_W_112" type="standard_car" route="E_W" depart="241.0" />    <vehicle id="W_E_113" type="standard_car" route="W_E" depart="244.0" />    <vehicle id="E_W_114" type="standard_car" route="E_W" depart="244.0" />    <vehicle id="E_W_115" type="standard_car" route="E_W" depart="245.0" />    <vehicle id="E_W_116" type="standard_car" route="E_W" depart="246.0" />    <vehicle id="W_E_117" type="standard_car" route="W_E" depart="247.0" />    <vehicle id="E_W_118" type="standard_car" route="E_W" depart="247.0" />    <vehicle id="E_S_119" type="standard_car" route="E_S" depart="247.0" />    <vehicle id="W_E_120" type="standard_car" route="W_E" depart="247.0" />    <vehicle id="N_E_121" type="standard_car" route="N_E" depart="247.0" />    <vehicle id="W_E_122" type="standard_car" route="W_E" depart="248.0" />    <vehicle id="E_W_123" type="standard_car" route="E_W" depart="251.0" />    <vehicle id="W_E_124" type="standard_car" route="W_E" depart="251.0" />    <vehicle id="E_W_125" type="standard_car" route="E_W" depart="254.0" />    <vehicle id="S_W_126" type="standard_car" route="S_W" depart="254.0" />    <vehicle id="W_E_127" type="standard_car" route="W_E" depart="255.0" />    <vehicle id="N_E_128" type="standard_car" route="N_E" depart="259.0" />    <vehicle id="W_S_129" type="standard_car" route="W_S" depart="260.0" />    <vehicle id="S_N_130" type="standard_car" route="S_N" depart="260.0" />    <vehicle id="N_S_131" type="standard_car" route="N_S" depart="261.0" />    <vehicle id="W_E_132" type="standard_car" route="W_E" depart="261.0" />    <vehicle id="W_N_133" type="standard_car" route="W_N" depart="264.0" />    <vehicle id="W_E_134" type="standard_car" route="W_E" depart="265.0" />    <vehicle id="W_E_135" type="standard_car" route="W_E" depart="266.0" />    <vehicle id="S_E_136" type="standard_car" route="N_E" depart="267.0" />    <vehicle id="W_N_137" type="standard_car" route="W_N" depart="267.0" />    <vehicle id="W_E_138" type="standard_car" route="W_E" depart="267.0" />    <vehicle id="E_W_139" type="standard_car" route="E_W" depart="267.0" />    <vehicle id="W_E_140" type="standard_car" route="W_E" depart="270.0" />    <vehicle id="W_S_141" type="standard_car" route="W_S" depart="270.0" />    <vehicle id="W_E_142" type="standard_car" route="W_E" depart="271.0" />    <vehicle id="E_W_143" type="standard_car" route="E_W" depart="271.0" />    <vehicle id="E_W_144" type="standard_car" route="E_W" depart="274.0" />    <vehicle id="E_W_145" type="standard_car" route="E_W" depart="274.0" />    <vehicle id="S_N_146" type="standard_car" route="S_N" depart="275.0" />    <vehicle id="E_S_147" type="standard_car" route="E_S" depart="275.0" />    <vehicle id="W_E_148" type="standard_car" route="W_E" depart="276.0" />    <vehicle id="E_W_149" type="standard_car" route="E_W" depart="277.0" />    <vehicle id="W_S_150" type="standard_car" route="W_S" depart="278.0" />    <vehicle id="E_W_151" type="standard_car" route="E_W" depart="278.0" />    <vehicle id="E_W_152" type="standard_car" route="E_W" depart="280.0" />    <vehicle id="E_W_153" type="standard_car" route="E_W" depart="280.0" />    <vehicle id="W_E_154" type="standard_car" route="W_E" depart="281.0" />    <vehicle id="E_S_155" type="standard_car" route="E_S" depart="281.0" />    <vehicle id="E_W_156" type="standard_car" route="E_W" depart="281.0" />    <vehicle id="W_E_157" type="standard_car" route="W_E" depart="282.0" />    <vehicle id="E_W_158" type="standard_car" route="E_W" depart="283.0" />    <vehicle id="W_E_159" type="standard_car" route="W_E" depart="283.0" />    <vehicle id="W_N_160" type="standard_car" route="W_N" depart="284.0" />    <vehicle id="E_W_161" type="standard_car" route="E_W" depart="285.0" />    <vehicle id="W_E_162" type="standard_car" route="W_E" depart="286.0" />    <vehicle id="E_W_163" type="standard_car" route="E_W" depart="286.0" />    <vehicle id="N_S_164" type="standard_car" route="N_S" depart="286.0" />    <vehicle id="W_E_165" type="standard_car" route="W_E" depart="287.0" />    <vehicle id="W_S_166" type="standard_car" route="W_S" depart="287.0" />    <vehicle id="W_E_167" type="standard_car" route="W_E" depart="288.0" />    <vehicle id="E_W_168" type="standard_car" route="E_W" depart="288.0" />    <vehicle id="W_E_169" type="standard_car" route="W_E" depart="289.0" />    <vehicle id="W_S_170" type="standard_car" route="W_S" depart="290.0" />    <vehicle id="E_W_171" type="standard_car" route="E_W" depart="290.0" />    <vehicle id="E_S_172" type="standard_car" route="E_S" depart="291.0" />    <vehicle id="W_S_173" type="standard_car" route="W_S" depart="291.0" />    <vehicle id="E_W_174" type="standard_car" route="E_W" depart="291.0" />    <vehicle id="E_W_175" type="standard_car" route="E_W" depart="291.0" />    <vehicle id="W_E_176" type="standard_car" route="W_E" depart="291.0" />    <vehicle id="E_W_177" type="standard_car" route="E_W" depart="292.0" />    <vehicle id="W_E_178" type="standard_car" route="W_E" depart="294.0" />    <vehicle id="W_E_179" type="standard_car" route="W_E" depart="294.0" />    <vehicle id="W_S_180" type="standard_car" route="W_S" depart="294.0" />    <vehicle id="E_S_181" type="standard_car" route="E_S" depart="295.0" />    <vehicle id="W_E_182" type="standard_car" route="W_E" depart="295.0" />    <vehicle id="W_E_183" type="standard_car" route="W_E" depart="296.0" />    <vehicle id="W_E_184" type="standard_car" route="W_E" depart="298.0" />    <vehicle id="E_W_185" type="standard_car" route="E_W" depart="298.0" />    <vehicle id="E_W_186" type="standard_car" route="E_W" depart="298.0" />    <vehicle id="W_E_187" type="standard_car" route="W_E" depart="300.0" />    <vehicle id="E_S_188" type="standard_car" route="E_S" depart="301.0" />    <vehicle id="E_W_189" type="standard_car" route="E_W" depart="301.0" />    <vehicle id="W_E_190" type="standard_car" route="W_E" depart="302.0" />    <vehicle id="W_E_191" type="standard_car" route="W_E" depart="304.0" />    <vehicle id="W_S_192" type="standard_car" route="W_S" depart="305.0" />    <vehicle id="N_S_193" type="standard_car" route="N_S" depart="307.0" />    <vehicle id="W_S_194" type="standard_car" route="W_S" depart="308.0" />    <vehicle id="W_E_195" type="standard_car" route="W_E" depart="308.0" />    <vehicle id="E_W_196" type="standard_car" route="E_W" depart="308.0" />    <vehicle id="E_W_197" type="standard_car" route="E_W" depart="309.0" />    <vehicle id="N_S_198" type="standard_car" route="N_S" depart="309.0" />    <vehicle id="E_W_199" type="standard_car" route="E_W" depart="310.0" />    <vehicle id="E_W_200" type="standard_car" route="E_W" depart="310.0" />    <vehicle id="E_W_201" type="standard_car" route="E_W" depart="311.0" />    <vehicle id="N_W_202" type="standard_car" route="N_W" depart="311.0" />    <vehicle id="W_E_203" type="standard_car" route="W_E" depart="312.0" />    <vehicle id="E_W_204" type="standard_car" route="E_W" depart="312.0" />    <vehicle id="W_E_205" type="standard_car" route="W_E" depart="312.0" />    <vehicle id="E_W_206" type="standard_car" route="E_W" depart="313.0" />    <vehicle id="E_N_207" type="standard_car" route="E_N" depart="313.0" />    <vehicle id="S_E_208" type="standard_car" route="N_E" depart="313.0" />    <vehicle id="E_W_209" type="standard_car" route="E_W" depart="314.0" />    <vehicle id="E_W_210" type="standard_car" route="E_W" depart="316.0" />    <vehicle id="W_S_211" type="standard_car" route="W_S" depart="316.0" />    <vehicle id="W_E_212" type="standard_car" route="W_E" depart="317.0" />    <vehicle id="W_E_213" type="standard_car" route="W_E" depart="319.0" />    <vehicle id="E_N_214" type="standard_car" route="E_N" depart="319.0" />    <vehicle id="E_W_215" type="standard_car" route="E_W" depart="319.0" />    <vehicle id="W_E_216" type="standard_car" route="W_E" depart="320.0" />    <vehicle id="E_N_217" type="standard_car" route="E_N" depart="322.0" />    <vehicle id="W_E_218" type="standard_car" route="W_E" depart="322.0" />    <vehicle id="W_N_219" type="standard_car" route="W_N" depart="323.0" />    <vehicle id="W_E_220" type="standard_car" route="W_E" depart="323.0" />    <vehicle id="E_W_221" type="standard_car" route="E_W" depart="324.0" />    <vehicle id="W_E_222" type="standard_car" route="W_E" depart="325.0" />    <vehicle id="W_N_223" type="standard_car" route="W_N" depart="325.0" />    <vehicle id="W_E_224" type="standard_car" route="W_E" depart="325.0" />    <vehicle id="W_E_225" type="standard_car" route="W_E" depart="328.0" />    <vehicle id="W_S_226" type="standard_car" route="W_S" depart="329.0" />    <vehicle id="E_S_227" type="standard_car" route="E_S" depart="331.0" />    <vehicle id="E_W_228" type="standard_car" route="E_W" depart="332.0" />    <vehicle id="E_W_229" type="standard_car" route="E_W" depart="333.0" />    <vehicle id="W_S_230" type="standard_car" route="W_S" depart="333.0" />    <vehicle id="E_N_231" type="standard_car" route="E_N" depart="334.0" />    <vehicle id="E_W_232" type="standard_car" route="E_W" depart="335.0" />    <vehicle id="E_W_233" type="standard_car" route="E_W" depart="336.0" />    <vehicle id="W_S_234" type="standard_car" route="W_S" depart="336.0" />    <vehicle id="E_W_235" type="standard_car" route="E_W" depart="336.0" />    <vehicle id="W_S_236" type="standard_car" route="W_S" depart="337.0" />    <vehicle id="W_N_237" type="standard_car" route="W_N" depart="338.0" />    <vehicle id="E_N_238" type="standard_car" route="E_N" depart="339.0" />    <vehicle id="N_S_239" type="standard_car" route="N_S" depart="339.0" />    <vehicle id="E_N_240" type="standard_car" route="E_N" depart="339.0" />    <vehicle id="E_S_241" type="standard_car" route="E_S" depart="340.0" />    <vehicle id="W_E_242" type="standard_car" route="W_E" depart="340.0" />    <vehicle id="E_S_243" type="standard_car" route="E_S" depart="340.0" />    <vehicle id="E_W_244" type="standard_car" route="E_W" depart="345.0" />    <vehicle id="E_W_245" type="standard_car" route="E_W" depart="345.0" />    <vehicle id="E_N_246" type="standard_car" route="E_N" depart="347.0" />    <vehicle id="W_E_247" type="standard_car" route="W_E" depart="347.0" />    <vehicle id="W_E_248" type="standard_car" route="W_E" depart="348.0" />    <vehicle id="E_W_249" type="standard_car" route="E_W" depart="349.0" />    <vehicle id="W_E_250" type="standard_car" route="W_E" depart="349.0" />    <vehicle id="E_W_251" type="standard_car" route="E_W" depart="349.0" />    <vehicle id="E_W_252" type="standard_car" route="E_W" depart="350.0" />    <vehicle id="N_S_253" type="standard_car" route="N_S" depart="350.0" />    <vehicle id="W_S_254" type="standard_car" route="W_S" depart="351.0" />    <vehicle id="E_S_255" type="standard_car" route="E_S" depart="351.0" />    <vehicle id="N_S_256" type="standard_car" route="N_S" depart="351.0" />    <vehicle id="W_E_257" type="standard_car" route="W_E" depart="351.0" />    <vehicle id="W_E_258" type="standard_car" route="W_E" depart="352.0" />    <vehicle id="E_W_259" type="standard_car" route="E_W" depart="354.0" />    <vehicle id="S_N_260" type="standard_car" route="S_N" depart="354.0" />    <vehicle id="E_W_261" type="standard_car" route="E_W" depart="355.0" />    <vehicle id="E_N_262" type="standard_car" route="E_N" depart="355.0" />    <vehicle id="W_E_263" type="standard_car" route="W_E" depart="355.0" />    <vehicle id="W_E_264" type="standard_car" route="W_E" depart="356.0" />    <vehicle id="W_E_265" type="standard_car" route="W_E" depart="356.0" />    <vehicle id="W_E_266" type="standard_car" route="W_E" depart="357.0" />    <vehicle id="W_E_267" type="standard_car" route="W_E" depart="357.0" />    <vehicle id="W_N_268" type="standard_car" route="W_N" depart="357.0" />    <vehicle id="E_W_269" type="standard_car" route="E_W" depart="357.0" />    <vehicle id="S_N_270" type="standard_car" route="S_N" depart="358.0" />    <vehicle id="W_S_271" type="standard_car" route="W_S" depart="359.0" />    <vehicle id="E_W_272" type="standard_car" route="E_W" depart="359.0" />    <vehicle id="W_E_273" type="standard_car" route="W_E" depart="361.0" />    <vehicle id="W_E_274" type="standard_car" route="W_E" depart="362.0" />    <vehicle id="E_W_275" type="standard_car" route="E_W" depart="362.0" />    <vehicle id="W_N_276" type="standard_car" route="W_N" depart="363.0" />    <vehicle id="E_W_277" type="standard_car" route="E_W" depart="363.0" />    <vehicle id="E_N_278" type="standard_car" route="E_N" depart="364.0" />    <vehicle id="E_W_279" type="standard_car" route="E_W" depart="364.0" />    <vehicle id="W_E_280" type="standard_car" route="W_E" depart="365.0" />    <vehicle id="W_S_281" type="standard_car" route="W_S" depart="365.0" />    <vehicle id="W_E_282" type="standard_car" route="W_E" depart="366.0" />    <vehicle id="W_E_283" type="standard_car" route="W_E" depart="366.0" />    <vehicle id="W_S_284" type="standard_car" route="W_S" depart="368.0" />    <vehicle id="E_W_285" type="standard_car" route="E_W" depart="369.0" />    <vehicle id="E_W_286" type="standard_car" route="E_W" depart="369.0" />    <vehicle id="W_N_287" type="standard_car" route="W_N" depart="370.0" />    <vehicle id="W_N_288" type="standard_car" route="W_N" depart="371.0" />    <vehicle id="E_W_289" type="standard_car" route="E_W" depart="371.0" />    <vehicle id="S_N_290" type="standard_car" route="S_N" depart="372.0" />    <vehicle id="E_W_291" type="standard_car" route="E_W" depart="374.0" />    <vehicle id="E_W_292" type="standard_car" route="E_W" depart="374.0" />    <vehicle id="E_S_293" type="standard_car" route="E_S" depart="374.0" />    <vehicle id="W_E_294" type="standard_car" route="W_E" depart="374.0" />    <vehicle id="N_S_295" type="standard_car" route="N_S" depart="374.0" />    <vehicle id="E_W_296" type="standard_car" route="E_W" depart="375.0" />    <vehicle id="S_N_297" type="standard_car" route="S_N" depart="375.0" />    <vehicle id="W_E_298" type="standard_car" route="W_E" depart="376.0" />    <vehicle id="W_S_299" type="standard_car" route="W_S" depart="376.0" />    <vehicle id="W_E_300" type="standard_car" route="W_E" depart="378.0" />    <vehicle id="W_N_301" type="standard_car" route="W_N" depart="378.0" />    <vehicle id="E_W_302" type="standard_car" route="E_W" depart="379.0" />    <vehicle id="W_E_303" type="standard_car" route="W_E" depart="381.0" />    <vehicle id="W_E_304" type="standard_car" route="W_E" depart="381.0" />    <vehicle id="W_E_305" type="standard_car" route="W_E" depart="381.0" />    <vehicle id="W_E_306" type="standard_car" route="W_E" depart="381.0" />    <vehicle id="E_W_307" type="standard_car" route="E_W" depart="382.0" />    <vehicle id="E_W_308" type="standard_car" route="E_W" depart="382.0" />    <vehicle id="W_E_309" type="standard_car" route="W_E" depart="383.0" />    <vehicle id="W_N_310" type="standard_car" route="W_N" depart="384.0" />    <vehicle id="E_W_311" type="standard_car" route="E_W" depart="384.0" />    <vehicle id="E_W_312" type="standard_car" route="E_W" depart="384.0" />    <vehicle id="W_E_313" type="standard_car" route="W_E" depart="385.0" />    <vehicle id="E_W_314" type="standard_car" route="E_W" depart="385.0" />    <vehicle id="E_W_315" type="standard_car" route="E_W" depart="386.0" />    <vehicle id="W_E_316" type="standard_car" route="W_E" depart="386.0" />    <vehicle id="W_E_317" type="standard_car" route="W_E" depart="387.0" />    <vehicle id="W_S_318" type="standard_car" route="W_S" depart="388.0" />    <vehicle id="E_W_319" type="standard_car" route="E_W" depart="389.0" />    <vehicle id="W_N_320" type="standard_car" route="W_N" depart="389.0" />    <vehicle id="E_W_321" type="standard_car" route="E_W" depart="389.0" />    <vehicle id="W_E_322" type="standard_car" route="W_E" depart="390.0" />    <vehicle id="E_W_323" type="standard_car" route="E_W" depart="392.0" />    <vehicle id="W_E_324" type="standard_car" route="W_E" depart="393.0" />    <vehicle id="W_E_325" type="standard_car" route="W_E" depart="393.0" />    <vehicle id="W_E_326" type="standard_car" route="W_E" depart="394.0" />    <vehicle id="W_E_327" type="standard_car" route="W_E" depart="394.0" />    <vehicle id="S_N_328" type="standard_car" route="S_N" depart="395.0" />    <vehicle id="E_S_329" type="standard_car" route="E_S" depart="395.0" />    <vehicle id="W_E_330" type="standard_car" route="W_E" depart="396.0" />    <vehicle id="W_E_331" type="standard_car" route="W_E" depart="396.0" />    <vehicle id="N_S_332" type="standard_car" route="N_S" depart="396.0" />    <vehicle id="E_N_333" type="standard_car" route="E_N" depart="396.0" />    <vehicle id="W_E_334" type="standard_car" route="W_E" depart="396.0" />    <vehicle id="W_E_335" type="standard_car" route="W_E" depart="397.0" />    <vehicle id="S_N_336" type="standard_car" route="S_N" depart="397.0" />    <vehicle id="E_W_337" type="standard_car" route="E_W" depart="398.0" />    <vehicle id="E_W_338" type="standard_car" route="E_W" depart="400.0" />    <vehicle id="W_E_339" type="standard_car" route="W_E" depart="400.0" />    <vehicle id="W_E_340" type="standard_car" route="W_E" depart="401.0" />    <vehicle id="W_E_341" type="standard_car" route="W_E" depart="401.0" />    <vehicle id="W_E_342" type="standard_car" route="W_E" depart="401.0" />    <vehicle id="E_S_343" type="standard_car" route="E_S" depart="402.0" />    <vehicle id="E_S_344" type="standard_car" route="E_S" depart="403.0" />    <vehicle id="W_E_345" type="standard_car" route="W_E" depart="403.0" />    <vehicle id="W_E_346" type="standard_car" route="W_E" depart="404.0" />    <vehicle id="S_N_347" type="standard_car" route="S_N" depart="404.0" />    <vehicle id="W_E_348" type="standard_car" route="W_E" depart="405.0" />    <vehicle id="E_W_349" type="standard_car" route="E_W" depart="405.0" />    <vehicle id="E_N_350" type="standard_car" route="E_N" depart="407.0" />    <vehicle id="W_E_351" type="standard_car" route="W_E" depart="407.0" />    <vehicle id="W_E_352" type="standard_car" route="W_E" depart="408.0" />    <vehicle id="W_N_353" type="standard_car" route="W_N" depart="408.0" />    <vehicle id="W_E_354" type="standard_car" route="W_E" depart="409.0" />    <vehicle id="E_W_355" type="standard_car" route="E_W" depart="409.0" />    <vehicle id="E_S_356" type="standard_car" route="E_S" depart="409.0" />    <vehicle id="E_W_357" type="standard_car" route="E_W" depart="409.0" />    <vehicle id="S_N_358" type="standard_car" route="S_N" depart="411.0" />    <vehicle id="S_W_359" type="standard_car" route="S_W" depart="411.0" />    <vehicle id="S_N_360" type="standard_car" route="S_N" depart="412.0" />    <vehicle id="W_E_361" type="standard_car" route="W_E" depart="413.0" />    <vehicle id="W_E_362" type="standard_car" route="W_E" depart="415.0" />    <vehicle id="W_E_363" type="standard_car" route="W_E" depart="416.0" />    <vehicle id="E_W_364" type="standard_car" route="E_W" depart="416.0" />    <vehicle id="E_W_365" type="standard_car" route="E_W" depart="416.0" />    <vehicle id="E_S_366" type="standard_car" route="E_S" depart="418.0" />    <vehicle id="E_W_367" type="standard_car" route="E_W" depart="419.0" />    <vehicle id="E_S_368" type="standard_car" route="E_S" depart="420.0" />    <vehicle id="S_N_369" type="standard_car" route="S_N" depart="422.0" />    <vehicle id="W_S_370" type="standard_car" route="W_S" depart="423.0" />    <vehicle id="E_W_371" type="standard_car" route="E_W" depart="423.0" />    <vehicle id="E_S_372" type="standard_car" route="E_S" depart="424.0" />    <vehicle id="E_W_373" type="standard_car" route="E_W" depart="425.0" />    <vehicle id="W_E_374" type="standard_car" route="W_E" depart="426.0" />    <vehicle id="W_E_375" type="standard_car" route="W_E" depart="426.0" />    <vehicle id="E_W_376" type="standard_car" route="E_W" depart="426.0" />    <vehicle id="E_S_377" type="standard_car" route="E_S" depart="427.0" />    <vehicle id="E_W_378" type="standard_car" route="E_W" depart="427.0" />    <vehicle id="N_S_379" type="standard_car" route="N_S" depart="427.0" />    <vehicle id="W_S_380" type="standard_car" route="W_S" depart="427.0" />    <vehicle id="W_N_381" type="standard_car" route="W_N" depart="427.0" />    <vehicle id="E_W_382" type="standard_car" route="E_W" depart="428.0" />    <vehicle id="W_E_383" type="standard_car" route="W_E" depart="428.0" />    <vehicle id="W_E_384" type="standard_car" route="W_E" depart="428.0" />    <vehicle id="S_N_385" type="standard_car" route="S_N" depart="430.0" />    <vehicle id="E_S_386" type="standard_car" route="E_S" depart="431.0" />    <vehicle id="W_E_387" type="standard_car" route="W_E" depart="433.0" />    <vehicle id="E_N_388" type="standard_car" route="E_N" depart="436.0" />    <vehicle id="W_E_389" type="standard_car" route="W_E" depart="436.0" />    <vehicle id="W_S_390" type="standard_car" route="W_S" depart="436.0" />    <vehicle id="E_W_391" type="standard_car" route="E_W" depart="437.0" />    <vehicle id="N_E_392" type="standard_car" route="N_E" depart="438.0" />    <vehicle id="W_E_393" type="standard_car" route="W_E" depart