<routes>
    <vType accel="1.0" decel="4.5" id="standard_car" length="5.0" minGap="2.5" maxSpeed="25" sigma="0.5" />

    <route id="W_N" edges="W2TL TL2N"/>
    <route id="W_E" edges="W2TL TL2E"/>
    <route id="W_S" edges="W2TL TL2S"/>
    <route id="N_W" edges="N2TL TL2W"/>
    <route id="N_E" edges="N2TL TL2E"/>
    <route id="N_S" edges="N2TL TL2S"/>
    <route id="E_W" edges="E2TL TL2W"/>
    <route id="E_N" edges="E2TL TL2N"/>
    <route id="E_S" edges="E2TL TL2S"/>
    <route id="S_W" edges="S2TL TL2W"/>
    <route id="S_N" edges="S2TL TL2N"/>
    <route id="S_E" edges="S2TL TL2E"/>
    <vehicle id="W_E_0" type="standard_car" route="W_E" depart="8.0" />
    <vehicle id="E_W_1" type="standard_car" route="E_W" depart="8.0" />
    <vehicle id="W_E_2" type="standard_car" route="W_E" depart="17.0" />
    <vehicle id="N_S_3" type="standard_car" route="N_S" depart="20.0" />
    <vehicle id="W_E_4" type="standard_car" route="W_E" depart="21.0" />
    <vehicle id="E_W_5" type="standard_car" route="E_W" depart="21.0" />
    <vehicle id="W_N_6" type="standard_car" route="W_N" depart="23.0" />
    <vehicle id="E_W_7" type="standard_car" route="E_W" depart="27.0" />
    <vehicle id="E_N_8" type="standard_car" route="E_N" depart="33.0" />
    <vehicle id="W_S_9" type="standard_car" route="W_S" depart="33.0" />
    <vehicle id="E_S_10" type="standard_car" route="E_S" depart="35.0" />
    <vehicle id="E_W_11" type="standard_car" route="E_W" depart="36.0" />
    <vehicle id="E_N_12" type="standard_car" route="E_N" depart="37.0" />
    <vehicle id="S_N_13" type="standard_car" route="S_N" depart="38.0" />
    <vehicle id="E_W_14" type="standard_car" route="E_W" depart="38.0" />
    <vehicle id="S_E_15" type="standard_car" route="N_E" depart="40.0" />
    <vehicle id="S_N_16" type="standard_car" route="S_N" depart="40.0" />
    <vehicle id="W_E_17" type="standard_car" route="W_E" depart="41.0" />
    <vehicle id="N_W_18" type="standard_car" route="N_W" depart="41.0" />
    <vehicle id="W_N_19" type="standard_car" route="W_N" depart="42.0" />
    <vehicle id="S_N_20" type="standard_car" route="S_N" depart="46.0" />
    <vehicle id="N_S_21" type="standard_car" route="N_S" depart="47.0" />
    <vehicle id="S_N_22" type="standard_car" route="S_N" depart="47.0" />
    <vehicle id="N_E_23" type="standard_car" route="N_E" depart="47.0" />
    <vehicle id="E_S_24" type="standard_car" route="E_S" depart="53.0" />
    <vehicle id="W_N_25" type="standard_car" route="W_N" depart="55.0" />
    <vehicle id="E_W_26" type="standard_car" route="E_W" depart="56.0" />
    <vehicle id="S_E_27" type="standard_car" route="N_E" depart="56.0" />
    <vehicle id="N_S_28" type="standard_car" route="N_S" depart="60.0" />
    <vehicle id="W_N_29" type="standard_car" route="W_N" depart="61.0" />
    <vehicle id="W_E_30" type="standard_car" route="W_E" depart="62.0" />
    <vehicle id="W_E_31" type="standard_car" route="W_E" depart="62.0" />
    <vehicle id="S_N_32" type="standard_car" route="S_N" depart="62.0" />
    <vehicle id="W_N_33" type="standard_car" route="W_N" depart="63.0" />
    <vehicle id="N_E_34" type="standard_car" route="N_E" depart="64.0" />
    <vehicle id="N_S_35" type="standard_car" route="N_S" depart="64.0" />
    <vehicle id="S_N_36" type="standard_car" route="S_N" depart="65.0" />
    <vehicle id="S_N_37" type="standard_car" route="S_N" depart="65.0" />
    <vehicle id="N_E_38" type="standard_car" route="N_E" depart="66.0" />
    <vehicle id="W_S_39" type="standard_car" route="W_S" depart="67.0" />
    <vehicle id="E_N_40" type="standard_car" route="E_N" depart="67.0" />
    <vehicle id="N_S_41" type="standard_car" route="N_S" depart="69.0" />
    <vehicle id="E_W_42" type="standard_car" route="E_W" depart="70.0" />
    <vehicle id="E_W_43" type="standard_car" route="E_W" depart="71.0" />
    <vehicle id="E_N_44" type="standard_car" route="E_N" depart="71.0" />
    <vehicle id="N_W_45" type="standard_car" route="N_W" depart="73.0" />
    <vehicle id="W_E_46" type="standard_car" route="W_E" depart="76.0" />
    <vehicle id="N_S_47" type="standard_car" route="N_S" depart="77.0" />
    <vehicle id="N_W_48" type="standard_car" route="N_W" depart="79.0" />
    <vehicle id="N_S_49" type="standard_car" route="N_S" depart="80.0" />
    <vehicle id="N_S_50" type="standard_car" route="N_S" depart="80.0" />
    <vehicle id="N_S_51" type="standard_car" route="N_S" depart="80.0" />
    <vehicle id="W_E_52" type="standard_car" route="W_E" depart="81.0" />
    <vehicle id="S_N_53" type="standard_car" route="S_N" depart="81.0" />
    <vehicle id="N_S_54" type="standard_car" route="N_S" depart="82.0" />
    <vehicle id="W_E_55" type="standard_car" route="W_E" depart="82.0" />
    <vehicle id="E_W_56" type="standard_car" route="E_W" depart="84.0" />
    <vehicle id="W_E_57" type="standard_car" route="W_E" depart="85.0" />
    <vehicle id="W_E_58" type="standard_car" route="W_E" depart="86.0" />
    <vehicle id="N_S_59" type="standard_car" route="N_S" depart="87.0" />
    <vehicle id="E_W_60" type="standard_car" route="E_W" depart="87.0" />
    <vehicle id="E_W_61" type="standard_car" route="E_W" depart="87.0" />
    <vehicle id="S_N_62" type="standard_car" route="S_N" depart="89.0" />
    <vehicle id="E_W_63" type="standard_car" route="E_W" depart="89.0" />
    <vehicle id="N_S_64" type="standard_car" route="N_S" depart="91.0" />
    <vehicle id="S_N_65" type="standard_car" route="S_N" depart="91.0" />
    <vehicle id="S_N_66" type="standard_car" route="S_N" depart="93.0" />
    <vehicle id="S_N_67" type="standard_car" route="S_N" depart="94.0" />
    <vehicle id="S_N_68" type="standard_car" route="S_N" depart="96.0" />
    <vehicle id="W_E_69" type="standard_car" route="W_E" depart="96.0" />
    <vehicle id="W_E_70" type="standard_car" route="W_E" depart="96.0" />
    <vehicle id="N_S_71" type="standard_car" route="N_S" depart="96.0" />
    <vehicle id="N_S_72" type="standard_car" route="N_S" depart="98.0" />
    <vehicle id="N_S_73" type="standard_car" route="N_S" depart="98.0" />
    <vehicle id="N_S_74" type="standard_car" route="N_S" depart="99.0" />
    <vehicle id="E_S_75" type="standard_car" route="E_S" depart="100.0" />
    <vehicle id="W_S_76" type="standard_car" route="W_S" depart="100.0" />
    <vehicle id="W_E_77" type="standard_car" route="W_E" depart="101.0" />
    <vehicle id="W_N_78" type="standard_car" route="W_N" depart="102.0" />
    <vehicle id="N_S_79" type="standard_car" route="N_S" depart="103.0" />
    <vehicle id="E_W_80" type="standard_car" route="E_W" depart="104.0" />
    <vehicle id="N_E_81" type="standard_car" route="N_E" depart="104.0" />
    <vehicle id="W_E_82" type="standard_car" route="W_E" depart="105.0" />
    <vehicle id="N_S_83" type="standard_car" route="N_S" depart="106.0" />
    <vehicle id="W_E_84" type="standard_car" route="W_E" depart="106.0" />
    <vehicle id="W_E_85" type="standard_car" route="W_E" depart="106.0" />
    <vehicle id="E_W_86" type="standard_car" route="E_W" depart="106.0" />
    <vehicle id="S_E_87" type="standard_car" route="N_E" depart="106.0" />
    <vehicle id="E_W_88" type="standard_car" route="E_W" depart="106.0" />
    <vehicle id="E_W_89" type="standard_car" route="E_W" depart="107.0" />
    <vehicle id="S_N_90" type="standard_car" route="S_N" depart="107.0" />
    <vehicle id="N_S_91" type="standard_car" route="N_S" depart="108.0" />
    <vehicle id="W_E_92" type="standard_car" route="W_E" depart="108.0" />
    <vehicle id="W_E_93" type="standard_car" route="W_E" depart="108.0" />
    <vehicle id="W_E_94" type="standard_car" route="W_E" depart="109.0" />
    <vehicle id="S_N_95" type="standard_car" route="S_N" depart="111.0" />
    <vehicle id="S_N_96" type="standard_car" route="S_N" depart="111.0" />
    <vehicle id="E_W_97" type="standard_car" route="E_W" depart="112.0" />
    <vehicle id="E_W_98" type="standard_car" route="E_W" depart="112.0" />
    <vehicle id="E_W_99" type="standard_car" route="E_W" depart="112.0" />
    <vehicle id="E_W_100" type="standard_car" route="E_W" depart="112.0" />
    <vehicle id="N_S_101" type="standard_car" route="N_S" depart="113.0" />
    <vehicle id="N_W_102" type="standard_car" route="N_W" depart="113.0" />
    <vehicle id="N_S_103" type="standard_car" route="N_S" depart="113.0" />
    <vehicle id="W_E_104" type="standard_car" route="W_E" depart="113.0" />
    <vehicle id="S_N_105" type="standard_car" route="S_N" depart="115.0" />
    <vehicle id="E_W_106" type="standard_car" route="E_W" depart="115.0" />
    <vehicle id="S_E_107" type="standard_car" route="N_E" depart="115.0" />
    <vehicle id="W_E_108" type="standard_car" route="W_E" depart="116.0" />
    <vehicle id="W_E_109" type="standard_car" route="W_E" depart="116.0" />
    <vehicle id="E_W_110" type="standard_car" route="E_W" depart="117.0" />
    <vehicle id="S_N_111" type="standard_car" route="S_N" depart="117.0" />
    <vehicle id="S_W_112" type="standard_car" route="S_W" depart="117.0" />
    <vehicle id="E_N_113" type="standard_car" route="E_N" depart="118.0" />
    <vehicle id="W_S_114" type="standard_car" route="W_S" depart="118.0" />
    <vehicle id="N_S_115" type="standard_car" route="N_S" depart="118.0" />
    <vehicle id="E_W_116" type="standard_car" route="E_W" depart="119.0" />
    <vehicle id="N_E_117" type="standard_car" route="N_E" depart="119.0" />
    <vehicle id="N_S_118" type="standard_car" route="N_S" depart="120.0" />
    <vehicle id="S_N_119" type="standard_car" route="S_N" depart="122.0" />
    <vehicle id="E_W_120" type="standard_car" route="E_W" depart="122.0" />
    <vehicle id="N_S_121" type="standard_car" route="N_S" depart="123.0" />
    <vehicle id="W_E_122" type="standard_car" route="W_E" depart="124.0" />
    <vehicle id="N_S_123" type="standard_car" route="N_S" depart="124.0" />
    <vehicle id="W_E_124" type="standard_car" route="W_E" depart="125.0" />
    <vehicle id="W_E_125" type="standard_car" route="W_E" depart="125.0" />
    <vehicle id="N_S_126" type="standard_car" route="N_S" depart="125.0" />
    <vehicle id="N_S_127" type="standard_car" route="N_S" depart="125.0" />
    <vehicle id="W_N_128" type="standard_car" route="W_N" depart="126.0" />
    <vehicle id="S_N_129" type="standard_car" route="S_N" depart="127.0" />
    <vehicle id="S_N_130" type="standard_car" route="S_N" depart="127.0" />
    <vehicle id="N_S_131" type="standard_car" route="N_S" depart="128.0" />
    <vehicle id="N_S_132" type="standard_car" route="N_S" depart="129.0" />
    <vehicle id="N_S_133" type="standard_car" route="N_S" depart="129.0" />
    <vehicle id="W_S_134" type="standard_car" route="W_S" depart="130.0" />
    <vehicle id="W_E_135" type="standard_car" route="W_E" depart="130.0" />
    <vehicle id="S_N_136" type="standard_car" route="S_N" depart="131.0" />
    <vehicle id="N_S_137" type="standard_car" route="N_S" depart="132.0" />
    <vehicle id="W_N_138" type="standard_car" route="W_N" depart="132.0" />
    <vehicle id="N_E_139" type="standard_car" route="N_E" depart="134.0" />
    <vehicle id="E_W_140" type="standard_car" route="E_W" depart="135.0" />
    <vehicle id="W_E_141" type="standard_car" route="W_E" depart="137.0" />
    <vehicle id="N_E_142" type="standard_car" route="N_E" depart="138.0" />
    <vehicle id="N_S_143" type="standard_car" route="N_S" depart="138.0" />
    <vehicle id="S_N_144" type="standard_car" route="S_N" depart="139.0" />
    <vehicle id="N_E_145" type="standard_car" route="N_E" depart="140.0" />
    <vehicle id="E_S_146" type="standard_car" route="E_S" depart="141.0" />
    <vehicle id="S_N_147" type="standard_car" route="S_N" depart="141.0" />
    <vehicle id="S_N_148" type="standard_car" route="S_N" depart="142.0" />
    <vehicle id="E_W_149" type="standard_car" route="E_W" depart="142.0" />
    <vehicle id="E_N_150" type="standard_car" route="E_N" depart="142.0" />
    <vehicle id="E_S_151" type="standard_car" route="E_S" depart="142.0" />
    <vehicle id="N_S_152" type="standard_car" route="N_S" depart="142.0" />
    <vehicle id="E_S_153" type="standard_car" route="E_S" depart="142.0" />
    <vehicle id="W_E_154" type="standard_car" route="W_E" depart="143.0" />
    <vehicle id="W_E_155" type="standard_car" route="W_E" depart="143.0" />
    <vehicle id="N_E_156" type="standard_car" route="N_E" depart="143.0" />
    <vehicle id="S_N_157" type="standard_car" route="S_N" depart="144.0" />
    <vehicle id="N_W_158" type="standard_car" route="N_W" depart="144.0" />
    <vehicle id="N_S_159" type="standard_car" route="N_S" depart="144.0" />
    <vehicle id="S_N_160" type="standard_car" route="S_N" depart="144.0" />
    <vehicle id="N_S_161" type="standard_car" route="N_S" depart="145.0" />
    <vehicle id="W_S_162" type="standard_car" route="W_S" depart="145.0" />
    <vehicle id="S_N_163" type="standard_car" route="S_N" depart="145.0" />
    <vehicle id="E_W_164" type="standard_car" route="E_W" depart="145.0" />
    <vehicle id="E_W_165" type="standard_car" route="E_W" depart="145.0" />
    <vehicle id="W_E_166" type="standard_car" route="W_E" depart="147.0" />
    <vehicle id="W_E_167" type="standard_car" route="W_E" depart="147.0" />
    <vehicle id="S_N_168" type="standard_car" route="S_N" depart="147.0" />
    <vehicle id="N_S_169" type="standard_car" route="N_S" depart="149.0" />
    <vehicle id="E_W_170" type="standard_car" route="E_W" depart="149.0" />
    <vehicle id="E_W_171" type="standard_car" route="E_W" depart="151.0" />
    <vehicle id="W_E_172" type="standard_car" route="W_E" depart="151.0" />
    <vehicle id="E_W_173" type="standard_car" route="E_W" depart="151.0" />
    <vehicle id="S_N_174" type="standard_car" route="S_N" depart="151.0" />
    <vehicle id="E_W_175" type="standard_car" route="E_W" depart="151.0" />
    <vehicle id="W_E_176" type="standard_car" route="W_E" depart="151.0" />
    <vehicle id="N_S_177" type="standard_car" route="N_S" depart="152.0" />
    <vehicle id="S_N_178" type="standard_car" route="S_N" depart="152.0" />
    <vehicle id="E_S_179" type="standard_car" route="E_S" depart="152.0" />
    <vehicle id="S_E_180" type="standard_car" route="N_E" depart="153.0" />
    <vehicle id="E_W_181" type="standard_car" route="E_W" depart="153.0" />
    <vehicle id="W_S_182" type="standard_car" route="W_S" depart="154.0" />
    <vehicle id="W_E_183" type="standard_car" route="W_E" depart="154.0" />
    <vehicle id="W_N_184" type="standard_car" route="W_N" depart="154.0" />
    <vehicle id="S_N_185" type="standard_car" route="S_N" depart="155.0" />
    <vehicle id="E_W_186" type="standard_car" route="E_W" depart="155.0" />
    <vehicle id="S_N_187" type="standard_car" route="S_N" depart="155.0" />
    <vehicle id="E_W_188" type="standard_car" route="E_W" depart="156.0" />
    <vehicle id="E_W_189" type="standard_car" route="E_W" depart="156.0" />
    <vehicle id="E_W_190" type="standard_car" route="E_W" depart="156.0" />
    <vehicle id="W_S_191" type="standard_car" route="W_S" depart="156.0" />
    <vehicle id="N_S_192" type="standard_car" route="N_S" depart="156.0" />
    <vehicle id="W_E_193" type="standard_car" route="W_E" depart="156.0" />
    <vehicle id="S_N_194" type="standard_car" route="S_N" depart="157.0" />
    <vehicle id="W_E_195" type="standard_car" route="W_E" depart="157.0" />
    <vehicle id="W_S_196" type="standard_car" route="W_S" depart="158.0" />
    <vehicle id="N_W_197" type="standard_car" route="N_W" depart="158.0" />
    <vehicle id="N_S_198" type="standard_car" route="N_S" depart="158.0" />
    <vehicle id="N_S_199" type="standard_car" route="N_S" depart="158.0" />
    <vehicle id="E_S_200" type="standard_car" route="E_S" depart="158.0" />
    <vehicle id="W_N_201" type="standard_car" route="W_N" depart="158.0" />
    <vehicle id="E_W_202" type="standard_car" route="E_W" depart="158.0" />
    <vehicle id="E_W_203" type="standard_car" route="E_W" depart="159.0" />
    <vehicle id="E_W_204" type="standard_car" route="E_W" depart="160.0" />
    <vehicle id="S_N_205" type="standard_car" route="S_N" depart="161.0" />
    <vehicle id="S_N_206" type="standard_car" route="S_N" depart="161.0" />
    <vehicle id="N_W_207" type="standard_car" route="N_W" depart="161.0" />
    <vehicle id="W_E_208" type="standard_car" route="W_E" depart="162.0" />
    <vehicle id="N_S_209" type="standard_car" route="N_S" depart="163.0" />
    <vehicle id="N_S_210" type="standard_car" route="N_S" depart="164.0" />
    <vehicle id="W_E_211" type="standard_car" route="W_E" depart="164.0" />
    <vehicle id="S_N_212" type="standard_car" route="S_N" depart="164.0" />
    <vehicle id="N_S_213" type="standard_car" route="N_S" depart="165.0" />
    <vehicle id="E_S_214" type="standard_car" route="E_S" depart="165.0" />
    <vehicle id="E_W_215" type="standard_car" route="E_W" depart="166.0" />
    <vehicle id="S_N_216" type="standard_car" route="S_N" depart="166.0" />
    <vehicle id="E_W_217" type="standard_car" route="E_W" depart="166.0" />
    <vehicle id="S_N_218" type="standard_car" route="S_N" depart="168.0" />
    <vehicle id="S_N_219" type="standard_car" route="S_N" depart="168.0" />
    <vehicle id="W_E_220" type="standard_car" route="W_E" depart="168.0" />
    <vehicle id="E_W_221" type="standard_car" route="E_W" depart="170.0" />
    <vehicle id="S_N_222" type="standard_car" route="S_N" depart="170.0" />
    <vehicle id="S_N_223" type="standard_car" route="S_N" depart="170.0" />
    <vehicle id="E_W_224" type="standard_car" route="E_W" depart="170.0" />
    <vehicle id="N_S_225" type="standard_car" route="N_S" depart="171.0" />
    <vehicle id="S_N_226" type="standard_car" route="S_N" depart="171.0" />
    <vehicle id="S_N_227" type="standard_car" route="S_N" depart="171.0" />
    <vehicle id="E_W_228" type="standard_car" route="E_W" depart="172.0" />
    <vehicle id="E_W_229" type="standard_car" route="E_W" depart="172.0" />
    <vehicle id="S_W_230" type="standard_car" route="S_W" depart="174.0" />
    <vehicle id="E_W_231" type="standard_car" route="E_W" depart="174.0" />
    <vehicle id="W_E_232" type="standard_car" route="W_E" depart="175.0" />
    <vehicle id="S_N_233" type="standard_car" route="S_N" depart="175.0" />
    <vehicle id="W_E_234" type="standard_car" route="W_E" depart="175.0" />
    <vehicle id="W_E_235" type="standard_car" route="W_E" depart="176.0" />
    <vehicle id="W_N_236" type="standard_car" route="W_N" depart="176.0" />
    <vehicle id="N_S_237" type="standard_car" route="N_S" depart="177.0" />
    <vehicle id="N_S_238" type="standard_car" route="N_S" depart="177.0" />
    <vehicle id="S_E_239" type="standard_car" route="N_E" depart="177.0" />
    <vehicle id="W_N_240" type="standard_car" route="W_N" depart="177.0" />
    <vehicle id="N_S_241" type="standard_car" route="N_S" depart="177.0" />
    <vehicle id="E_W_242" type="standard_car" route="E_W" depart="178.0" />
    <vehicle id="E_W_243" type="standard_car" route="E_W" depart="179.0" />
    <vehicle id="N_S_244" type="standard_car" route="N_S" depart="179.0" />
    <vehicle id="S_N_245" type="standard_car" route="S_N" depart="180.0" />
    <vehicle id="N_S_246" type="standard_car" route="N_S" depart="180.0" />
    <vehicle id="W_N_247" type="standard_car" route="W_N" depart="180.0" />
    <vehicle id="W_E_248" type="standard_car" route="W_E" depart="180.0" />
    <vehicle id="W_E_249" type="standard_car" route="W_E" depart="181.0" />
    <vehicle id="W_N_250" type="standard_car" route="W_N" depart="181.0" />
    <vehicle id="S_N_251" type="standard_car" route="S_N" depart="181.0" />
    <vehicle id="S_N_252" type="standard_car" route="S_N" depart="181.0" />
    <vehicle id="W_E_253" type="standard_car" route="W_E" depart="182.0" />
    <vehicle id="S_N_254" type="standard_car" route="S_N" depart="182.0" />
    <vehicle id="S_N_255" type="standard_car" route="S_N" depart="183.0" />
    <vehicle id="S_N_256" type="standard_car" route="S_N" depart="183.0" />
    <vehicle id="N_S_257" type="standard_car" route="N_S" depart="183.0" />
    <vehicle id="E_W_258" type="standard_car" route="E_W" depart="184.0" />
    <vehicle id="W_E_259" type="standard_car" route="W_E" depart="185.0" />
    <vehicle id="W_N_260" type="standard_car" route="W_N" depart="185.0" />
    <vehicle id="W_E_261" type="standard_car" route="W_E" depart="185.0" />
    <vehicle id="E_W_262" type="standard_car" route="E_W" depart="185.0" />
    <vehicle id="S_W_263" type="standard_car" route="S_W" depart="186.0" />
    <vehicle id="N_S_264" type="standard_car" route="N_S" depart="187.0" />
    <vehicle id="W_E_265" type="standard_car" route="W_E" depart="187.0" />
    <vehicle id="S_N_266" type="standard_car" route="S_N" depart="187.0" />
    <vehicle id="W_E_267" type="standard_car" route="W_E" depart="187.0" />
    <vehicle id="W_E_268" type="standard_car" route="W_E" depart="187.0" />
    <vehicle id="W_N_269" type="standard_car" route="W_N" depart="188.0" />
    <vehicle id="E_W_270" type="standard_car" route="E_W" depart="188.0" />
    <vehicle id="E_W_271" type="standard_car" route="E_W" depart="188.0" />
    <vehicle id="S_N_272" type="standard_car" route="S_N" depart="188.0" />
    <vehicle id="E_W_273" type="standard_car" route="E_W" depart="188.0" />
    <vehicle id="N_S_274" type="standard_car" route="N_S" depart="188.0" />
    <vehicle id="E_W_275" type="standard_car" route="E_W" depart="189.0" />
    <vehicle id="S_N_276" type="standard_car" route="S_N" depart="189.0" />
    <vehicle id="S_N_277" type="standard_car" route="S_N" depart="190.0" />
    <vehicle id="E_N_278" type="standard_car" route="E_N" depart="191.0" />
    <vehicle id="N_S_279" type="standard_car" route="N_S" depart="191.0" />
    <vehicle id="N_S_280" type="standard_car" route="N_S" depart="191.0" />
    <vehicle id="N_S_281" type="standard_car" route="N_S" depart="192.0" />
    <vehicle id="N_E_282" type="standard_car" route="N_E" depart="192.0" />
    <vehicle id="W_E_283" type="standard_car" route="W_E" depart="192.0" />
    <vehicle id="N_S_284" type="standard_car" route="N_S" depart="192.0" />
    <vehicle id="S_N_285" type="standard_car" route="S_N" depart="192.0" />
    <vehicle id="E_W_286" type="standard_car" route="E_W" depart="193.0" />
    <vehicle id="E_W_287" type="standard_car" route="E_W" depart="194.0" />
    <vehicle id="E_W_288" type="standard_car" route="E_W" depart="194.0" />
    <vehicle id="W_S_289" type="standard_car" route="W_S" depart="195.0" />
    <vehicle id="E_W_290" type="standard_car" route="E_W" depart="195.0" />
    <vehicle id="S_N_291" type="standard_car" route="S_N" depart="196.0" />
    <vehicle id="S_E_292" type="standard_car" route="N_E" depart="196.0" />
    <vehicle id="W_E_293" type="standard_car" route="W_E" depart="196.0" />
    <vehicle id="S_N_294" type="standard_car" route="S_N" depart="196.0" />
    <vehicle id="W_E_295" type="standard_car" route="W_E" depart="197.0" />
    <vehicle id="N_S_296" type="standard_car" route="N_S" depart="198.0" />
    <vehicle id="W_S_297" type="standard_car" route="W_S" depart="198.0" />
    <vehicle id="S_E_298" type="standard_car" route="N_E" depart="198.0" />
    <vehicle id="S_N_299" type="standard_car" route="S_N" depart="199.0" />
    <vehicle id="S_N_300" type="standard_car" route="S_N" depart="199.0" />
    <vehicle id="S_N_301" type="standard_car" route="S_N" depart="200.0" />
    <vehicle id="W_E_302" type="standard_car" route="W_E" depart="201.0" />
    <vehicle id="E_W_303" type="standard_car" route="E_W" depart="202.0" />
    <vehicle id="W_E_304" type="standard_car" route="W_E" depart="202.0" />
    <vehicle id="W_E_305" type="standard_car" route="W_E" depart="203.0" />
    <vehicle id="N_S_306" type="standard_car" route="N_S" depart="203.0" />
    <vehicle id="W_E_307" type="standard_car" route="W_E" depart="204.0" />
    <vehicle id="N_S_308" type="standard_car" route="N_S" depart="205.0" />
    <vehicle id="S_N_309" type="standard_car" route="S_N" depart="205.0" />
    <vehicle id="W_E_310" type="standard_car" route="W_E" depart="205.0" />
    <vehicle id="N_W_311" type="standard_car" route="N_W" depart="206.0" />
    <vehicle id="W_E_312" type="standard_car" route="W_E" depart="206.0" />
    <vehicle id="S_N_313" type="standard_car" route="S_N" depart="206.0" />
    <vehicle id="S_N_314" type="standard_car" route="S_N" depart="206.0" />
    <vehicle id="E_W_315" type="standard_car" route="E_W" depart="206.0" />
    <vehicle id="W_E_316" type="standard_car" route="W_E" depart="206.0" />
    <vehicle id="E_W_317" type="standard_car" route="E_W" depart="206.0" />
    <vehicle id="W_S_318" type="standard_car" route="W_S" depart="207.0" />
    <vehicle id="S_N_319" type="standard_car" route="S_N" depart="207.0" />
    <vehicle id="E_W_320" type="standard_car" route="E_W" depart="208.0" />
    <vehicle id="S_N_321" type="standard_car" route="S_N" depart="209.0" />
    <vehicle id="E_W_322" type="standard_car" route="E_W" depart="209.0" />
    <vehicle id="E_W_323" type="standard_car" route="E_W" depart="210.0" />
    <vehicle id="N_S_324" type="standard_car" route="N_S" depart="210.0" />
    <vehicle id="E_W_325" type="standard_car" route="E_W" depart="210.0" />
    <vehicle id="N_S_326" type="standard_car" route="N_S" depart="211.0" />
    <vehicle id="N_S_327" type="standard_car" route="N_S" depart="211.0" />
    <vehicle id="W_E_328" type="standard_car" route="W_E" depart="211.0" />
    <vehicle id="W_E_329" type="standard_car" route="W_E" depart="212.0" />
    <vehicle id="S_N_330" type="standard_car" route="S_N" depart="213.0" />
    <vehicle id="N_S_331" type="standard_car" route="N_S" depart="213.0" />
    <vehicle id="E_N_332" type="standard_car" route="E_N" depart="213.0" />
    <vehicle id="E_W_333" type="standard_car" route="E_W" depart="213.0" />
    <vehicle id="E_S_334" type="standard_car" route="E_S" depart="214.0" />
    <vehicle id="W_E_335" type="standard_car" route="W_E" depart="214.0" />
    <vehicle id="E_W_336" type="standard_car" route="E_W" depart="214.0" />
    <vehicle id="S_N_337" type="standard_car" route="S_N" depart="215.0" />
    <vehicle id="W_N_338" type="standard_car" route="W_N" depart="215.0" />
    <vehicle id="N_S_339" type="standard_car" route="N_S" depart="215.0" />
    <vehicle id="N_S_340" type="standard_car" route="N_S" depart="215.0" />
    <vehicle id="W_E_341" type="standard_car" route="W_E" depart="216.0" />
    <vehicle id="S_N_342" type="standard_car" route="S_N" depart="217.0" />
    <vehicle id="E_W_343" type="standard_car" route="E_W" depart="217.0" />
    <vehicle id="E_W_344" type="standard_car" route="E_W" depart="217.0" />
    <vehicle id="W_E_345" type="standard_car" route="W_E" depart="218.0" />
    <vehicle id="E_W_346" type="standard_car" route="E_W" depart="218.0" />
    <vehicle id="N_E_347" type="standard_car" route="N_E" depart="218.0" />
    <vehicle id="E_W_348" type="standard_car" route="E_W" depart="218.0" />
    <vehicle id="N_W_349" type="standard_car" route="N_W" depart="219.0" />
    <vehicle id="E_S_350" type="standard_car" route="E_S" depart="219.0" />
    <vehicle id="S_N_351" type="standard_car" route="S_N" depart="220.0" />
    <vehicle id="S_N_352" type="standard_car" route="S_N" depart="220.0" />
    <vehicle id="S_N_353" type="standard_car" route="S_N" depart="220.0" />
    <vehicle id="S_E_354" type="standard_car" route="N_E" depart="220.0" />
    <vehicle id="E_W_355" type="standard_car" route="E_W" depart="220.0" />
    <vehicle id="W_E_356" type="standard_car" route="W_E" depart="220.0" />
    <vehicle id="S_N_357" type="standard_car" route="S_N" depart="221.0" />
    <vehicle id="W_E_358" type="standard_car" route="W_E" depart="221.0" />
    <vehicle id="E_W_359" type="standard_car" route="E_W" depart="221.0" />
    <vehicle id="W_E_360" type="standard_car" route="W_E" depart="221.0" />
    <vehicle id="S_N_361" type="standard_car" route="S_N" depart="222.0" />
    <vehicle id="S_N_362" type="standard_car" route="S_N" depart="222.0" />
    <vehicle id="W_E_363" type="standard_car" route="W_E" depart="222.0" />
    <vehicle id="W_N_364" type="standard_car" route="W_N" depart="223.0" />
    <vehicle id="S_N_365" type="standard_car" route="S_N" depart="223.0" />
    <vehicle id="W_E_366" type="standard_car" route="W_E" depart="223.0" />
    <vehicle id="E_W_367" type="standard_car" route="E_W" depart="223.0" />
    <vehicle id="N_W_368" type="standard_car" route="N_W" depart="223.0" />
    <vehicle id="W_E_369" type="standard_car" route="W_E" depart="224.0" />
    <vehicle id="W_E_370" type="standard_car" route="W_E" depart="224.0" />
    <vehicle id="N_S_371" type="standard_car" route="N_S" depart="224.0" />
    <vehicle id="S_N_372" type="standard_car" route="S_N" depart="224.0" />
    <vehicle id="W_E_373" type="standard_car" route="W_E" depart="224.0" />
    <vehicle id="N_S_374" type="standard_car" route="N_S" depart="225.0" />
    <vehicle id="S_N_375" type="standard_car" route="S_N" depart="225.0" />
    <vehicle id="N_S_376" type="standard_car" route="N_S" depart="225.0" />
    <vehicle id="N_S_377" type="standard_car" route="N_S" depart="226.0" />
    <vehicle id="E_W_378" type="standard_car" route="E_W" depart="226.0" />
    <vehicle id="E_W_379" type="standard_car" route="E_W" depart="226.0" />
    <vehicle id="S_E_380" type="standard_car" route="N_E" depart="226.0" />
    <vehicle id="E_W_381" type="standard_car" route="E_W" depart="226.0" />
    <vehicle id="W_E_382" type="standard_car" route="W_E" depart="226.0" />
    <vehicle id="S_N_383" type="standard_car" route="S_N" depart="227.0" />
    <vehicle id="E_W_384" type="standard_car" route="E_W" depart="227.0" />
    <vehicle id="N_S_385" type="standard_car" route="N_S" depart="227.0" />
    <vehicle id="E_W_386" type="standard_car" route="E_W" depart="227.0" />
    <vehicle id="W_S_387" type="standard_car" route="W_S" depart="227.0" />
    <vehicle id="S_W_388" type="standard_car" route="S_W" depart="227.0" />