<routes>
    <vType accel="1.0" decel="4.5" id="standard_car" length="5.0" minGap="2.5" maxSpeed="25" sigma="0.5" />

    <route id="W_N" edges="W2TL TL2N"/>
    <route id="W_E" edges="W2TL TL2E"/>
    <route id="W_S" edges="W2TL TL2S"/>
    <route id="N_W" edges="N2TL TL2W"/>
    <route id="N_E" edges="N2TL TL2E"/>
    <route id="N_S" edges="N2TL TL2S"/>
    <route id="E_W" edges="E2TL TL2W"/>
    <route id="E_N" edges="E2TL TL2N"/>
    <route id="E_S" edges="E2TL TL2S"/>
    <route id="S_W" edges="S2TL TL2W"/>
    <route id="S_N" edges="S2TL TL2N"/>
    <route id="S_E" edges="S2TL TL2E"/>    <vehicle id="E_W_0" type="standard_car" route="E_W" depart="4.0" />    <vehicle id="E_W_1" type="standard_car" route="E_W" depart="4.0" />    <vehicle id="E_W_2" type="standard_car" route="E_W" depart="8.0" />    <vehicle id="S_E_3" type="standard_car" route="N_E" depart="8.0" />    <vehicle id="E_N_4" type="standard_car" route="E_N" depart="10.0" />    <vehicle id="E_W_5" type="standard_car" route="E_W" depart="13.0" />    <vehicle id="S_N_6" type="standard_car" route="S_N" depart="30.0" />    <vehicle id="S_W_7" type="standard_car" route="S_W" depart="33.0" />    <vehicle id="N_E_8" type="standard_car" route="N_E" depart="33.0" />    <vehicle id="W_E_9" type="standard_car" route="W_E" depart="37.0" />    <vehicle id="N_S_10" type="standard_car" route="N_S" depart="39.0" />    <vehicle id="N_S_11" type="standard_car" route="N_S" depart="42.0" />    <vehicle id="W_E_12" type="standard_car" route="W_E" depart="48.0" />    <vehicle id="E_W_13" type="standard_car" route="E_W" depart="50.0" />    <vehicle id="W_E_14" type="standard_car" route="W_E" depart="51.0" />    <vehicle id="W_E_15" type="standard_car" route="W_E" depart="52.0" />    <vehicle id="W_E_16" type="standard_car" route="W_E" depart="52.0" />    <vehicle id="W_E_17" type="standard_car" route="W_E" depart="55.0" />    <vehicle id="N_S_18" type="standard_car" route="N_S" depart="55.0" />    <vehicle id="N_S_19" type="standard_car" route="N_S" depart="56.0" />    <vehicle id="S_N_20" type="standard_car" route="S_N" depart="57.0" />    <vehicle id="E_W_21" type="standard_car" route="E_W" depart="58.0" />    <vehicle id="N_S_22" type="standard_car" route="N_S" depart="58.0" />    <vehicle id="W_E_23" type="standard_car" route="W_E" depart="59.0" />    <vehicle id="S_N_24" type="standard_car" route="S_N" depart="61.0" />    <vehicle id="N_E_25" type="standard_car" route="N_E" depart="61.0" />    <vehicle id="S_W_26" type="standard_car" route="S_W" depart="62.0" />    <vehicle id="E_W_27" type="standard_car" route="E_W" depart="63.0" />    <vehicle id="W_E_28" type="standard_car" route="W_E" depart="63.0" />    <vehicle id="E_W_29" type="standard_car" route="E_W" depart="63.0" />    <vehicle id="N_S_30" type="standard_car" route="N_S" depart="63.0" />    <vehicle id="S_N_31" type="standard_car" route="S_N" depart="66.0" />    <vehicle id="E_S_32" type="standard_car" route="E_S" depart="68.0" />    <vehicle id="W_N_33" type="standard_car" route="W_N" depart="68.0" />    <vehicle id="W_E_34" type="standard_car" route="W_E" depart="68.0" />    <vehicle id="W_S_35" type="standard_car" route="W_S" depart="69.0" />    <vehicle id="W_E_36" type="standard_car" route="W_E" depart="73.0" />    <vehicle id="N_S_37" type="standard_car" route="N_S" depart="74.0" />    <vehicle id="E_W_38" type="standard_car" route="E_W" depart="74.0" />    <vehicle id="W_E_39" type="standard_car" route="W_E" depart="75.0" />    <vehicle id="S_N_40" type="standard_car" route="S_N" depart="76.0" />    <vehicle id="S_N_41" type="standard_car" route="S_N" depart="76.0" />    <vehicle id="N_S_42" type="standard_car" route="N_S" depart="79.0" />    <vehicle id="S_N_43" type="standard_car" route="S_N" depart="80.0" />    <vehicle id="N_W_44" type="standard_car" route="N_W" depart="80.0" />    <vehicle id="S_N_45" type="standard_car" route="S_N" depart="81.0" />    <vehicle id="N_S_46" type="standard_car" route="N_S" depart="82.0" />    <vehicle id="W_E_47" type="standard_car" route="W_E" depart="82.0" />    <vehicle id="N_S_48" type="standard_car" route="N_S" depart="82.0" />    <vehicle id="E_W_49" type="standard_car" route="E_W" depart="82.0" />    <vehicle id="E_W_50" type="standard_car" route="E_W" depart="82.0" />    <vehicle id="W_S_51" type="standard_car" route="W_S" depart="83.0" />    <vehicle id="E_W_52" type="standard_car" route="E_W" depart="83.0" />    <vehicle id="W_E_53" type="standard_car" route="W_E" depart="85.0" />    <vehicle id="W_E_54" type="standard_car" route="W_E" depart="86.0" />    <vehicle id="W_N_55" type="standard_car" route="W_N" depart="86.0" />    <vehicle id="W_E_56" type="standard_car" route="W_E" depart="87.0" />    <vehicle id="E_W_57" type="standard_car" route="E_W" depart="87.0" />    <vehicle id="E_W_58" type="standard_car" route="E_W" depart="88.0" />    <vehicle id="E_S_59" type="standard_car" route="E_S" depart="89.0" />    <vehicle id="E_W_60" type="standard_car" route="E_W" depart="89.0" />    <vehicle id="N_W_61" type="standard_car" route="N_W" depart="90.0" />    <vehicle id="W_E_62" type="standard_car" route="W_E" depart="91.0" />    <vehicle id="E_S_63" type="standard_car" route="E_S" depart="93.0" />    <vehicle id="S_W_64" type="standard_car" route="S_W" depart="93.0" />    <vehicle id="N_S_65" type="standard_car" route="N_S" depart="93.0" />    <vehicle id="W_E_66" type="standard_car" route="W_E" depart="93.0" />    <vehicle id="E_W_67" type="standard_car" route="E_W" depart="93.0" />    <vehicle id="N_E_68" type="standard_car" route="N_E" depart="94.0" />    <vehicle id="E_W_69" type="standard_car" route="E_W" depart="97.0" />    <vehicle id="E_S_70" type="standard_car" route="E_S" depart="98.0" />    <vehicle id="E_N_71" type="standard_car" route="E_N" depart="99.0" />    <vehicle id="W_E_72" type="standard_car" route="W_E" depart="99.0" />    <vehicle id="E_W_73" type="standard_car" route="E_W" depart="100.0" />    <vehicle id="W_E_74" type="standard_car" route="W_E" depart="103.0" />    <vehicle id="N_S_75" type="standard_car" route="N_S" depart="105.0" />    <vehicle id="E_W_76" type="standard_car" route="E_W" depart="107.0" />    <vehicle id="W_N_77" type="standard_car" route="W_N" depart="107.0" />    <vehicle id="N_S_78" type="standard_car" route="N_S" depart="108.0" />    <vehicle id="W_E_79" type="standard_car" route="W_E" depart="110.0" />    <vehicle id="S_E_80" type="standard_car" route="N_E" depart="111.0" />    <vehicle id="N_S_81" type="standard_car" route="N_S" depart="113.0" />    <vehicle id="E_N_82" type="standard_car" route="E_N" depart="113.0" />    <vehicle id="E_W_83" type="standard_car" route="E_W" depart="113.0" />    <vehicle id="S_N_84" type="standard_car" route="S_N" depart="113.0" />    <vehicle id="S_N_85" type="standard_car" route="S_N" depart="114.0" />    <vehicle id="W_E_86" type="standard_car" route="W_E" depart="114.0" />    <vehicle id="N_E_87" type="standard_car" route="N_E" depart="114.0" />    <vehicle id="N_W_88" type="standard_car" route="N_W" depart="116.0" />    <vehicle id="N_S_89" type="standard_car" route="N_S" depart="116.0" />    <vehicle id="E_W_90" type="standard_car" route="E_W" depart="116.0" />    <vehicle id="E_W_91" type="standard_car" route="E_W" depart="117.0" />    <vehicle id="E_W_92" type="standard_car" route="E_W" depart="117.0" />    <vehicle id="E_W_93" type="standard_car" route="E_W" depart="118.0" />    <vehicle id="W_S_94" type="standard_car" route="W_S" depart="118.0" />    <vehicle id="W_E_95" type="standard_car" route="W_E" depart="119.0" />    <vehicle id="S_N_96" type="standard_car" route="S_N" depart="119.0" />    <vehicle id="S_N_97" type="standard_car" route="S_N" depart="120.0" />    <vehicle id="W_E_98" type="standard_car" route="W_E" depart="121.0" />    <vehicle id="E_W_99" type="standard_car" route="E_W" depart="121.0" />    <vehicle id="E_S_100" type="standard_car" route="E_S" depart="122.0" />    <vehicle id="N_S_101" type="standard_car" route="N_S" depart="122.0" />    <vehicle id="S_N_102" type="standard_car" route="S_N" depart="122.0" />    <vehicle id="S_N_103" type="standard_car" route="S_N" depart="123.0" />    <vehicle id="S_N_104" type="standard_car" route="S_N" depart="124.0" />    <vehicle id="W_E_105" type="standard_car" route="W_E" depart="124.0" />    <vehicle id="E_S_106" type="standard_car" route="E_S" depart="124.0" />    <vehicle id="S_E_107" type="standard_car" route="N_E" depart="125.0" />    <vehicle id="W_E_108" type="standard_car" route="W_E" depart="126.0" />    <vehicle id="E_W_109" type="standard_car" route="E_W" depart="127.0" />    <vehicle id="S_W_110" type="standard_car" route="S_W" depart="127.0" />    <vehicle id="N_S_111" type="standard_car" route="N_S" depart="127.0" />    <vehicle id="N_S_112" type="standard_car" route="N_S" depart="127.0" />    <vehicle id="E_W_113" type="standard_car" route="E_W" depart="128.0" />    <vehicle id="E_W_114" type="standard_car" route="E_W" depart="128.0" />    <vehicle id="N_S_115" type="standard_car" route="N_S" depart="129.0" />    <vehicle id="E_W_116" type="standard_car" route="E_W" depart="129.0" />    <vehicle id="E_N_117" type="standard_car" route="E_N" depart="129.0" />    <vehicle id="N_S_118" type="standard_car" route="N_S" depart="130.0" />    <vehicle id="W_E_119" type="standard_car" route="W_E" depart="130.0" />    <vehicle id="N_S_120" type="standard_car" route="N_S" depart="131.0" />    <vehicle id="W_E_121" type="standard_car" route="W_E" depart="131.0" />    <vehicle id="N_W_122" type="standard_car" route="N_W" depart="132.0" />    <vehicle id="W_E_123" type="standard_car" route="W_E" depart="132.0" />    <vehicle id="N_S_124" type="standard_car" route="N_S" depart="133.0" />    <vehicle id="E_W_125" type="standard_car" route="E_W" depart="135.0" />    <vehicle id="N_S_126" type="standard_car" route="N_S" depart="135.0" />    <vehicle id="E_S_127" type="standard_car" route="E_S" depart="135.0" />    <vehicle id="W_E_128" type="standard_car" route="W_E" depart="136.0" />    <vehicle id="W_E_129" type="standard_car" route="W_E" depart="136.0" />    <vehicle id="S_N_130" type="standard_car" route="S_N" depart="136.0" />    <vehicle id="S_N_131" type="standard_car" route="S_N" depart="137.0" />    <vehicle id="S_E_132" type="standard_car" route="N_E" depart="138.0" />    <vehicle id="N_W_133" type="standard_car" route="N_W" depart="138.0" />    <vehicle id="E_S_134" type="standard_car" route="E_S" depart="139.0" />    <vehicle id="W_N_135" type="standard_car" route="W_N" depart="139.0" />    <vehicle id="N_E_136" type="standard_car" route="N_E" depart="139.0" />    <vehicle id="N_S_137" type="standard_car" route="N_S" depart="140.0" />    <vehicle id="N_S_138" type="standard_car" route="N_S" depart="141.0" />    <vehicle id="W_S_139" type="standard_car" route="W_S" depart="141.0" />    <vehicle id="S_W_140" type="standard_car" route="S_W" depart="141.0" />    <vehicle id="E_W_141" type="standard_car" route="E_W" depart="143.0" />    <vehicle id="N_S_142" type="standard_car" route="N_S" depart="143.0" />    <vehicle id="N_S_143" type="standard_car" route="N_S" depart="144.0" />    <vehicle id="W_E_144" type="standard_car" route="W_E" depart="145.0" />    <vehicle id="N_S_145" type="standard_car" route="N_S" depart="145.0" />    <vehicle id="E_W_146" type="standard_car" route="E_W" depart="145.0" />    <vehicle id="S_E_147" type="standard_car" route="N_E" depart="146.0" />    <vehicle id="E_W_148" type="standard_car" route="E_W" depart="146.0" />    <vehicle id="S_N_149" type="standard_car" route="S_N" depart="147.0" />    <vehicle id="N_S_150" type="standard_car" route="N_S" depart="147.0" />    <vehicle id="N_E_151" type="standard_car" route="N_E" depart="147.0" />    <vehicle id="N_E_152" type="standard_car" route="N_E" depart="147.0" />    <vehicle id="S_N_153" type="standard_car" route="S_N" depart="147.0" />    <vehicle id="N_S_154" type="standard_car" route="N_S" depart="148.0" />    <vehicle id="W_E_155" type="standard_car" route="W_E" depart="150.0" />    <vehicle id="E_W_156" type="standard_car" route="E_W" depart="150.0" />    <vehicle id="N_S_157" type="standard_car" route="N_S" depart="150.0" />    <vehicle id="N_S_158" type="standard_car" route="N_S" depart="150.0" />    <vehicle id="N_S_159" type="standard_car" route="N_S" depart="151.0" />    <vehicle id="S_N_160" type="standard_car" route="S_N" depart="151.0" />    <vehicle id="E_W_161" type="standard_car" route="E_W" depart="151.0" />    <vehicle id="W_E_162" type="standard_car" route="W_E" depart="152.0" />    <vehicle id="W_E_163" type="standard_car" route="W_E" depart="152.0" />    <vehicle id="S_N_164" type="standard_car" route="S_N" depart="152.0" />    <vehicle id="W_E_165" type="standard_car" route="W_E" depart="153.0" />    <vehicle id="W_E_166" type="standard_car" route="W_E" depart="153.0" />    <vehicle id="S_N_167" type="standard_car" route="S_N" depart="154.0" />    <vehicle id="E_W_168" type="standard_car" route="E_W" depart="154.0" />    <vehicle id="N_S_169" type="standard_car" route="N_S" depart="155.0" />    <vehicle id="E_W_170" type="standard_car" route="E_W" depart="156.0" />    <vehicle id="W_E_171" type="standard_car" route="W_E" depart="156.0" />    <vehicle id="E_W_172" type="standard_car" route="E_W" depart="156.0" />    <vehicle id="W_E_173" type="standard_car" route="W_E" depart="158.0" />    <vehicle id="W_E_174" type="standard_car" route="W_E" depart="158.0" />    <vehicle id="S_E_175" type="standard_car" route="N_E" depart="158.0" />    <vehicle id="E_W_176" type="standard_car" route="E_W" depart="159.0" />    <vehicle id="S_N_177" type="standard_car" route="S_N" depart="159.0" />    <vehicle id="N_W_178" type="standard_car" route="N_W" depart="160.0" />    <vehicle id="E_W_179" type="standard_car" route="E_W" depart="160.0" />    <vehicle id="W_E_180" type="standard_car" route="W_E" depart="160.0" />    <vehicle id="N_W_181" type="standard_car" route="N_W" depart="161.0" />    <vehicle id="N_S_182" type="standard_car" route="N_S" depart="161.0" />    <vehicle id="E_N_183" type="standard_car" route="E_N" depart="161.0" />    <vehicle id="W_E_184" type="standard_car" route="W_E" depart="161.0" />    <vehicle id="W_E_185" type="standard_car" route="W_E" depart="162.0" />    <vehicle id="W_E_186" type="standard_car" route="W_E" depart="162.0" />    <vehicle id="W_E_187" type="standard_car" route="W_E" depart="163.0" />    <vehicle id="W_S_188" type="standard_car" route="W_S" depart="163.0" />    <vehicle id="E_W_189" type="standard_car" route="E_W" depart="163.0" />    <vehicle id="S_W_190" type="standard_car" route="S_W" depart="164.0" />    <vehicle id="N_S_191" type="standard_car" route="N_S" depart="164.0" />    <vehicle id="N_S_192" type="standard_car" route="N_S" depart="164.0" />    <vehicle id="S_N_193" type="standard_car" route="S_N" depart="165.0" />    <vehicle id="W_S_194" type="standard_car" route="W_S" depart="166.0" />    <vehicle id="N_S_195" type="standard_car" route="N_S" depart="167.0" />    <vehicle id="E_W_196" type="standard_car" route="E_W" depart="168.0" />    <vehicle id="W_E_197" type="standard_car" route="W_E" depart="168.0" />    <vehicle id="E_W_198" type="standard_car" route="E_W" depart="170.0" />    <vehicle id="E_W_199" type="standard_car" route="E_W" depart="171.0" />    <vehicle id="W_E_200" type="standard_car" route="W_E" depart="171.0" />    <vehicle id="N_S_201" type="standard_car" route="N_S" depart="171.0" />    <vehicle id="S_N_202" type="standard_car" route="S_N" depart="171.0" />    <vehicle id="N_S_203" type="standard_car" route="N_S" depart="171.0" />    <vehicle id="E_W_204" type="standard_car" route="E_W" depart="172.0" />    <vehicle id="S_N_205" type="standard_car" route="S_N" depart="173.0" />    <vehicle id="S_N_206" type="standard_car" route="S_N" depart="174.0" />    <vehicle id="S_N_207" type="standard_car" route="S_N" depart="174.0" />    <vehicle id="W_S_208" type="standard_car" route="W_S" depart="175.0" />    <vehicle id="E_W_209" type="standard_car" route="E_W" depart="175.0" />    <vehicle id="W_E_210" type="standard_car" route="W_E" depart="175.0" />    <vehicle id="N_S_211" type="standard_car" route="N_S" depart="175.0" />    <vehicle id="S_N_212" type="standard_car" route="S_N" depart="176.0" />    <vehicle id="S_N_213" type="standard_car" route="S_N" depart="177.0" />    <vehicle id="W_S_214" type="standard_car" route="W_S" depart="177.0" />    <vehicle id="N_S_215" type="standard_car" route="N_S" depart="177.0" />    <vehicle id="N_E_216" type="standard_car" route="N_E" depart="178.0" />    <vehicle id="E_N_217" type="standard_car" route="E_N" depart="178.0" />    <vehicle id="S_N_218" type="standard_car" route="S_N" depart="178.0" />    <vehicle id="N_S_219" type="standard_car" route="N_S" depart="178.0" />    <vehicle id="S_N_220" type="standard_car" route="S_N" depart="179.0" />    <vehicle id="E_W_221" type="standard_car" route="E_W" depart="180.0" />    <vehicle id="S_N_222" type="standard_car" route="S_N" depart="181.0" />    <vehicle id="S_N_223" type="standard_car" route="S_N" depart="181.0" />    <vehicle id="N_S_224" type="standard_car" route="N_S" depart="181.0" />    <vehicle id="W_S_225" type="standard_car" route="W_S" depart="181.0" />    <vehicle id="N_S_226" type="standard_car" route="N_S" depart="181.0" />    <vehicle id="N_S_227" type="standard_car" route="N_S" depart="182.0" />    <vehicle id="E_W_228" type="standard_car" route="E_W" depart="182.0" />    <vehicle id="S_N_229" type="standard_car" route="S_N" depart="182.0" />    <vehicle id="E_W_230" type="standard_car" route="E_W" depart="182.0" />    <vehicle id="S_E_231" type="standard_car" route="N_E" depart="183.0" />    <vehicle id="W_E_232" type="standard_car" route="W_E" depart="183.0" />    <vehicle id="E_W_233" type="standard_car" route="E_W" depart="185.0" />    <vehicle id="N_E_234" type="standard_car" route="N_E" depart="186.0" />    <vehicle id="E_W_235" type="standard_car" route="E_W" depart="186.0" />    <vehicle id="N_S_236" type="standard_car" route="N_S" depart="186.0" />    <vehicle id="N_S_237" type="standard_car" route="N_S" depart="186.0" />    <vehicle id="W_N_238" type="standard_car" route="W_N" depart="186.0" />    <vehicle id="W_E_239" type="standard_car" route="W_E" depart="186.0" />    <vehicle id="E_S_240" type="standard_car" route="E_S" depart="187.0" />    <vehicle id="W_N_241" type="standard_car" route="W_N" depart="187.0" />    <vehicle id="E_W_242" type="standard_car" route="E_W" depart="188.0" />    <vehicle id="W_S_243" type="standard_car" route="W_S" depart="188.0" />    <vehicle id="S_N_244" type="standard_car" route="S_N" depart="188.0" />    <vehicle id="N_S_245" type="standard_car" route="N_S" depart="189.0" />    <vehicle id="N_S_246" type="standard_car" route="N_S" depart="189.0" />    <vehicle id="S_N_247" type="standard_car" route="S_N" depart="189.0" />    <vehicle id="S_N_248" type="standard_car" route="S_N" depart="189.0" />    <vehicle id="E_W_249" type="standard_car" route="E_W" depart="190.0" />    <vehicle id="S_N_250" type="standard_car" route="S_N" depart="190.0" />    <vehicle id="S_N_251" type="standard_car" route="S_N" depart="190.0" />    <vehicle id="W_E_252" type="standard_car" route="W_E" depart="191.0" />    <vehicle id="N_S_253" type="standard_car" route="N_S" depart="191.0" />    <vehicle id="S_N_254" type="standard_car" route="S_N" depart="191.0" />    <vehicle id="E_W_255" type="standard_car" route="E_W" depart="191.0" />    <vehicle id="S_E_256" type="standard_car" route="N_E" depart="192.0" />    <vehicle id="W_E_257" type="standard_car" route="W_E" depart="192.0" />    <vehicle id="N_S_258" type="standard_car" route="N_S" depart="193.0" />    <vehicle id="N_E_259" type="standard_car" route="N_E" depart="193.0" />    <vehicle id="E_W_260" type="standard_car" route="E_W" depart="193.0" />    <vehicle id="W_S_261" type="standard_car" route="W_S" depart="194.0" />    <vehicle id="N_S_262" type="standard_car" route="N_S" depart="194.0" />    <vehicle id="N_S_263" type="standard_car" route="N_S" depart="194.0" />    <vehicle id="S_N_264" type="standard_car" route="S_N" depart="195.0" />    <vehicle id="W_E_265" type="standard_car" route="W_E" depart="195.0" />    <vehicle id="W_E_266" type="standard_car" route="W_E" depart="195.0" />    <vehicle id="S_W_267" type="standard_car" route="S_W" depart="197.0" />    <vehicle id="W_E_268" type="standard_car" route="W_E" depart="197.0" />    <vehicle id="W_E_269" type="standard_car" route="W_E" depart="197.0" />    <vehicle id="S_W_270" type="standard_car" route="S_W" depart="197.0" />    <vehicle id="E_W_271" type="standard_car" route="E_W" depart="197.0" />    <vehicle id="E_S_272" type="standard_car" route="E_S" depart="197.0" />    <vehicle id="N_S_273" type="standard_car" route="N_S" depart="198.0" />    <vehicle id="N_E_274" type="standard_car" route="N_E" depart="198.0" />    <vehicle id="E_S_275" type="standard_car" route="E_S" depart="198.0" />    <vehicle id="N_S_276" type="standard_car" route="N_S" depart="200.0" />    <vehicle id="E_W_277" type="standard_car" route="E_W" depart="200.0" />    <vehicle id="E_W_278" type="standard_car" route="E_W" depart="201.0" />    <vehicle id="E_W_279" type="standard_car" route="E_W" depart="201.0" />    <vehicle id="S_N_280" type="standard_car" route="S_N" depart="201.0" />    <vehicle id="S_W_281" type="standard_car" route="S_W" depart="202.0" />    <vehicle id="W_N_282" type="standard_car" route="W_N" depart="202.0" />    <vehicle id="N_S_283" type="standard_car" route="N_S" depart="202.0" />    <vehicle id="W_E_284" type="standard_car" route="W_E" depart="203.0" />    <vehicle id="S_N_285" type="standard_car" route="S_N" depart="203.0" />    <vehicle id="N_S_286" type="standard_car" route="N_S" depart="203.0" />    <vehicle id="S_N_287" type="standard_car" route="S_N" depart="203.0" />    <vehicle id="S_W_288" type="standard_car" route="S_W" depart="204.0" />    <vehicle id="N_S_289" type="standard_car" route="N_S" depart="204.0" />    <vehicle id="S_N_290" type="standard_car" route="S_N" depart="205.0" />    <vehicle id="E_W_291" type="standard_car" route="E_W" depart="206.0" />    <vehicle id="W_E_292" type="standard_car" route="W_E" depart="206.0" />    <vehicle id="N_S_293" type="standard_car" route="N_S" depart="207.0" />    <vehicle id="W_E_294" type="standard_car" route="W_E" depart="208.0" />    <vehicle id="N_E_295" type="standard_car" route="N_E" depart="208.0" />    <vehicle id="W_E_296" type="standard_car" route="W_E" depart="208.0" />    <vehicle id="E_W_297" type="standard_car" route="E_W" depart="208.0" />    <vehicle id="S_N_298" type="standard_car" route="S_N" depart="208.0" />    <vehicle id="S_N_299" type="standard_car" route="S_N" depart="209.0" />    <vehicle id="W_E_300" type="standard_car" route="W_E" depart="209.0" />    <vehicle id="E_W_301" type="standard_car" route="E_W" depart="209.0" />    <vehicle id="N_E_302" type="standard_car" route="N_E" depart="209.0" />    <vehicle id="E_S_303" type="standard_car" route="E_S" depart="209.0" />    <vehicle id="E_W_304" type="standard_car" route="E_W" depart="210.0" />    <vehicle id="S_N_305" type="standard_car" route="S_N" depart="210.0" />    <vehicle id="E_W_306" type="standard_car" route="E_W" depart="210.0" />    <vehicle id="E_W_307" type="standard_car" route="E_W" depart="211.0" />    <vehicle id="E_N_308" type="standard_car" route="E_N" depart="211.0" />    <vehicle id="E_W_309" type="standard_car" route="E_W" depart="211.0" />    <vehicle id="W_E_310" type="standard_car" route="W_E" depart="211.0" />    <vehicle id="N_E_311" type="standard_car" route="N_E" depart="211.0" />    <vehicle id="N_S_312" type="standard_car" route="N_S" depart="212.0" />    <vehicle id="W_E_313" type="standard_car" route="W_E" depart="213.0" />    <vehicle id="N_S_314" type="standard_car" route="N_S" depart="213.0" />    <vehicle id="S_N_315" type="standard_car" route="S_N" depart="213.0" />    <vehicle id="S_W_316" type="standard_car" route="S_W" depart="214.0" />    <vehicle id="W_E_317" type="standard_car" route="W_E" depart="215.0" />    <vehicle id="N_S_318" type="standard_car" route="N_S" depart="215.0" />    <vehicle id="S_N_319" type="standard_car" route="S_N" depart="216.0" />    <vehicle id="S_W_320" type="standard_car" route="S_W" depart="216.0" />    <vehicle id="W_S_321" type="standard_car" route="W_S" depart="216.0" />    <vehicle id="S_E_322" type="standard_car" route="N_E" depart="217.0" />    <vehicle id="W_N_323" type="standard_car" route="W_N" depart="219.0" />    <vehicle id="S_N_324" type="standard_car" route="S_N" depart="219.0" />    <vehicle id="N_S_325" type="standard_car" route="N_S" depart="219.0" />    <vehicle id="S_N_326" type="standard_car" route="S_N" depart="219.0" />    <vehicle id="E_N_327" type="standard_car" route="E_N" depart="219.0" />    <vehicle id="W_E_328" type="standard_car" route="W_E" depart="219.0" />    <vehicle id="W_E_329" type="standard_car" route="W_E" depart="219.0" />    <vehicle id="W_E_330" type="standard_car" route="W_E" depart="221.0" />    <vehicle id="W_E_331" type="standard_car" route="W_E" depart="221.0" />    <vehicle id="N_S_332" type="standard_car" route="N_S" depart="221.0" />    <vehicle id="S_N_333" type="standard_car" route="S_N" depart="221.0" />    <vehicle id="W_E_334" type="standard_car" route="W_E" depart="221.0" />    <vehicle id="N_W_335" type="standard_car" route="N_W" depart="221.0" />    <vehicle id="N_S_336" type="standard_car" route="N_S" depart="222.0" />    <vehicle id="W_E_337" type="standard_car" route="W_E" depart="222.0" />    <vehicle id="W_E_338" type="standard_car" route="W_E" depart="222.0" />    <vehicle id="W_E_339" type="standard_car" route="W_E" depart="223.0" />    <vehicle id="S_N_340" type="standard_car" route="S_N" depart="223.0" />    <vehicle id="N_S_341" type="standard_car" route="N_S" depart="223.0" />    <vehicle id="W_E_342" type="standard_car" route="W_E" depart="223.0" />    <vehicle id="S_W_343" type="standard_car" route="S_W" depart="225.0" />    <vehicle id="W_S_344" type="standard_car" route="W_S" depart="225.0" />    <vehicle id="N_S_345" type="standard_car" route="N_S" depart="225.0" />    <vehicle id="N_S_346" type="standard_car" route="N_S" depart="225.0" />    <vehicle id="S_W_347" type="standard_car" route="S_W" depart="226.0" />    <vehicle id="S_N_348" type="standard_car" route="S_N" depart="227.0" />    <vehicle id="E_W_349" type="standard_car" route="E_W" depart="227.0" />    <vehicle id="N_E_350" type="standard_car" route="N_E" depart="227.0" />    <vehicle id="N_S_351" type="standard_car" route="N_S" depart="228.0" />    <vehicle id="N_S_352" type="standard_car" route="N_S" depart="228.0" />    <vehicle id="N_S_353" type="standard_car" route="N_S" depart="228.0" />    <vehicle id="S_E_354" type="standard_car" route="N_E" depart="229.0" />    <vehicle id="W_E_355" type="standard_car" route="W_E" depart="230.0" />    <vehicle id="N_S_356" type="standard_car" route="N_S" depart="230.0" />    <vehicle id="N_S_357" type="standard_car" route="N_S" depart="231.0" />    <vehicle id="W_E_358" type="standard_car" route="W_E" depart="231.0" />    <vehicle id="W_E_359" type="standard_car" route="W_E" depart="231.0" />    <vehicle id="W_E_360" type="standard_car" route="W_E" depart="232.0" />    <vehicle id="N_S_361" type="standard_car" route="N_S" depart="232.0" />    <vehicle id="N_W_362" type="standard_car" route="N_W" depart="232.0" />    <vehicle id="N_S_363" type="standard_car" route="N_S" depart="233.0" />    <vehicle id="N_S_364" type="standard_car" route="N_S" depart="234.0" />    <vehicle id="S_N_365" type="standard_car" route="S_N" depart="234.0" />    <vehicle id="E_W_366" type="standard_car" route="E_W" depart="235.0" />    <vehicle id="N_S_367" type="standard_car" route="N_S" depart="235.0" />    <vehicle id="N_S_368" type="standard_car" route="N_S" depart="235.0" />    <vehicle id="W_E_369" type="standard_car" route="W_E" depart="235.0" />    <vehicle id="N_S_370" type="standard_car" route="N_S" depart="235.0" />    <vehicle id="N_W_371" type="standard_car" route="N_W" depart="235.0" />    <vehicle id="E_W_372" type="standard_car" route="E_W" depart="236.0" />    <vehicle id="N_S_373" type="standard_car" route="N_S" depart="236.0" />    <vehicle id="W_E_374" type="standard_car" route="W_E" depart="236.0" />    <vehicle id="E_N_375" type="standard_car" route="E_N" depart="236.0" />    <vehicle id="N_S_376" type="standard_car" route="N_S" depart="236.0" />    <vehicle id="N_S_377" type="standard_car" route="N_S" depart="236.0" />    <vehicle id="E_W_378" type="standard_car" route="E_W" depart="237.0" />    <vehicle id="N_S_379" type="standard_car" route="N_S" depart="237.0" />    <vehicle id="W_E_380" type="standard_car" route="W_E" depart="237.0" />    <vehicle id="N_S_381" type="standard_car" route="N_S" depart="238.0" />    <vehicle id="S_N_382" type="standard_car" route="S_N" depart="238.0" />    <vehicle id="W_N_383" type="standard_car" route="W_N" depart="238.0" />    <vehicle id="S_N_384" type="standard_car" route="S_N" depart="239.0" />    <vehicle id="W_S_385" type="standard_car" route="W_S" depart="239.0" />    <vehicle id="N_S_386" type="standard_car" route="N_S" depart="239.0" />    <vehicle id="S_N_387" type="standard_car" route="S_N" depart="240.0" />    <vehicle id="W_E_388" type="standard_car" route="W_E" depart="240.0" />    <vehicle id="N_S_389" type="standard_car" route="N_S" depart="241.0" />    <vehicle id="S_N_390" type="standard_car" route="S_N" depart="242.0" />    <vehicle id="E_W_391" type="standard_car" route="E_W" depart="242.0" />    <vehicle id="S_N_392" type="standard_car" route="S_N" depart="242.0" />    <vehicle id="N_E_393" type="standard_car" route="N_E" depart="243.0" />    <vehicle id="W_N_394" type="standard