<routes>
    <vType accel="1.0" decel="4.5" id="standard_car" length="5.0" minGap="2.5" maxSpeed="25" sigma="0.5" />

    <route id="W_N" edges="W2TL TL2N"/>
    <route id="W_E" edges="W2TL TL2E"/>
    <route id="W_S" edges="W2TL TL2S"/>
    <route id="N_W" edges="N2TL TL2W"/>
    <route id="N_E" edges="N2TL TL2E"/>
    <route id="N_S" edges="N2TL TL2S"/>
    <route id="E_W" edges="E2TL TL2W"/>
    <route id="E_N" edges="E2TL TL2N"/>
    <route id="E_S" edges="E2TL TL2S"/>
    <route id="S_W" edges="S2TL TL2W"/>
    <route id="S_N" edges="S2TL TL2N"/>
    <route id="S_E" edges="S2TL TL2E"/>
    <vehicle id="W_E_0" type="standard_car" route="W_E" depart="13.0" />
    <vehicle id="E_W_1" type="standard_car" route="E_W" depart="14.0" />
    <vehicle id="N_S_2" type="standard_car" route="N_S" depart="19.0" />
    <vehicle id="W_E_3" type="standard_car" route="W_E" depart="28.0" />
    <vehicle id="S_N_4" type="standard_car" route="S_N" depart="28.0" />
    <vehicle id="N_S_5" type="standard_car" route="N_S" depart="40.0" />
    <vehicle id="E_S_6" type="standard_car" route="E_S" depart="41.0" />
    <vehicle id="E_N_7" type="standard_car" route="E_N" depart="46.0" />
    <vehicle id="S_N_8" type="standard_car" route="S_N" depart="47.0" />
    <vehicle id="N_S_9" type="standard_car" route="N_S" depart="47.0" />
    <vehicle id="W_E_10" type="standard_car" route="W_E" depart="51.0" />
    <vehicle id="N_S_11" type="standard_car" route="N_S" depart="51.0" />
    <vehicle id="W_E_12" type="standard_car" route="W_E" depart="52.0" />
    <vehicle id="S_N_13" type="standard_car" route="S_N" depart="53.0" />
    <vehicle id="W_E_14" type="standard_car" route="W_E" depart="56.0" />
    <vehicle id="W_E_15" type="standard_car" route="W_E" depart="58.0" />
    <vehicle id="S_E_16" type="standard_car" route="N_E" depart="59.0" />
    <vehicle id="W_E_17" type="standard_car" route="W_E" depart="60.0" />
    <vehicle id="E_W_18" type="standard_car" route="E_W" depart="62.0" />
    <vehicle id="E_W_19" type="standard_car" route="E_W" depart="63.0" />
    <vehicle id="N_S_20" type="standard_car" route="N_S" depart="63.0" />
    <vehicle id="S_N_21" type="standard_car" route="S_N" depart="66.0" />
    <vehicle id="N_S_22" type="standard_car" route="N_S" depart="71.0" />
    <vehicle id="S_E_23" type="standard_car" route="N_E" depart="75.0" />
    <vehicle id="E_W_24" type="standard_car" route="E_W" depart="75.0" />
    <vehicle id="E_W_25" type="standard_car" route="E_W" depart="75.0" />
    <vehicle id="E_W_26" type="standard_car" route="E_W" depart="76.0" />
    <vehicle id="S_N_27" type="standard_car" route="S_N" depart="76.0" />
    <vehicle id="N_W_28" type="standard_car" route="N_W" depart="77.0" />
    <vehicle id="S_N_29" type="standard_car" route="S_N" depart="78.0" />
    <vehicle id="N_S_30" type="standard_car" route="N_S" depart="82.0" />
    <vehicle id="S_N_31" type="standard_car" route="S_N" depart="82.0" />
    <vehicle id="E_S_32" type="standard_car" route="E_S" depart="83.0" />
    <vehicle id="S_N_33" type="standard_car" route="S_N" depart="83.0" />
    <vehicle id="S_N_34" type="standard_car" route="S_N" depart="86.0" />
    <vehicle id="S_W_35" type="standard_car" route="S_W" depart="94.0" />
    <vehicle id="E_W_36" type="standard_car" route="E_W" depart="94.0" />
    <vehicle id="W_E_37" type="standard_car" route="W_E" depart="95.0" />
    <vehicle id="S_W_38" type="standard_car" route="S_W" depart="95.0" />
    <vehicle id="E_W_39" type="standard_car" route="E_W" depart="96.0" />
    <vehicle id="S_N_40" type="standard_car" route="S_N" depart="96.0" />
    <vehicle id="W_E_41" type="standard_car" route="W_E" depart="98.0" />
    <vehicle id="W_E_42" type="standard_car" route="W_E" depart="100.0" />
    <vehicle id="S_N_43" type="standard_car" route="S_N" depart="102.0" />
    <vehicle id="S_N_44" type="standard_car" route="S_N" depart="103.0" />
    <vehicle id="W_S_45" type="standard_car" route="W_S" depart="103.0" />
    <vehicle id="N_S_46" type="standard_car" route="N_S" depart="104.0" />
    <vehicle id="S_N_47" type="standard_car" route="S_N" depart="106.0" />
    <vehicle id="W_E_48" type="standard_car" route="W_E" depart="106.0" />
    <vehicle id="W_E_49" type="standard_car" route="W_E" depart="106.0" />
    <vehicle id="E_W_50" type="standard_car" route="E_W" depart="106.0" />
    <vehicle id="W_E_51" type="standard_car" route="W_E" depart="106.0" />
    <vehicle id="W_E_52" type="standard_car" route="W_E" depart="107.0" />
    <vehicle id="W_E_53" type="standard_car" route="W_E" depart="108.0" />
    <vehicle id="E_W_54" type="standard_car" route="E_W" depart="109.0" />
    <vehicle id="N_S_55" type="standard_car" route="N_S" depart="111.0" />
    <vehicle id="E_N_56" type="standard_car" route="E_N" depart="111.0" />
    <vehicle id="N_S_57" type="standard_car" route="N_S" depart="112.0" />
    <vehicle id="S_N_58" type="standard_car" route="S_N" depart="113.0" />
    <vehicle id="N_S_59" type="standard_car" route="N_S" depart="115.0" />
    <vehicle id="S_N_60" type="standard_car" route="S_N" depart="115.0" />
    <vehicle id="N_S_61" type="standard_car" route="N_S" depart="116.0" />
    <vehicle id="W_E_62" type="standard_car" route="W_E" depart="118.0" />
    <vehicle id="W_N_63" type="standard_car" route="W_N" depart="119.0" />
    <vehicle id="E_W_64" type="standard_car" route="E_W" depart="119.0" />
    <vehicle id="W_E_65" type="standard_car" route="W_E" depart="119.0" />
    <vehicle id="S_N_66" type="standard_car" route="S_N" depart="119.0" />
    <vehicle id="N_S_67" type="standard_car" route="N_S" depart="119.0" />
    <vehicle id="E_W_68" type="standard_car" route="E_W" depart="119.0" />
    <vehicle id="N_S_69" type="standard_car" route="N_S" depart="122.0" />
    <vehicle id="E_W_70" type="standard_car" route="E_W" depart="125.0" />
    <vehicle id="N_S_71" type="standard_car" route="N_S" depart="125.0" />
    <vehicle id="N_S_72" type="standard_car" route="N_S" depart="125.0" />
    <vehicle id="W_E_73" type="standard_car" route="W_E" depart="125.0" />
    <vehicle id="W_E_74" type="standard_car" route="W_E" depart="129.0" />
    <vehicle id="N_E_75" type="standard_car" route="N_E" depart="131.0" />
    <vehicle id="N_S_76" type="standard_car" route="N_S" depart="132.0" />
    <vehicle id="W_E_77" type="standard_car" route="W_E" depart="133.0" />
    <vehicle id="S_W_78" type="standard_car" route="S_W" depart="134.0" />
    <vehicle id="S_N_79" type="standard_car" route="S_N" depart="134.0" />
    <vehicle id="N_S_80" type="standard_car" route="N_S" depart="134.0" />
    <vehicle id="S_N_81" type="standard_car" route="S_N" depart="135.0" />
    <vehicle id="E_W_82" type="standard_car" route="E_W" depart="136.0" />
    <vehicle id="N_S_83" type="standard_car" route="N_S" depart="136.0" />
    <vehicle id="N_S_84" type="standard_car" route="N_S" depart="136.0" />
    <vehicle id="S_E_85" type="standard_car" route="N_E" depart="137.0" />
    <vehicle id="W_E_86" type="standard_car" route="W_E" depart="138.0" />
    <vehicle id="S_N_87" type="standard_car" route="S_N" depart="138.0" />
    <vehicle id="W_E_88" type="standard_car" route="W_E" depart="138.0" />
    <vehicle id="N_E_89" type="standard_car" route="N_E" depart="139.0" />
    <vehicle id="S_W_90" type="standard_car" route="S_W" depart="145.0" />
    <vehicle id="W_N_91" type="standard_car" route="W_N" depart="145.0" />
    <vehicle id="W_E_92" type="standard_car" route="W_E" depart="145.0" />
    <vehicle id="E_W_93" type="standard_car" route="E_W" depart="146.0" />
    <vehicle id="N_S_94" type="standard_car" route="N_S" depart="147.0" />
    <vehicle id="N_S_95" type="standard_car" route="N_S" depart="147.0" />
    <vehicle id="W_E_96" type="standard_car" route="W_E" depart="148.0" />
    <vehicle id="N_S_97" type="standard_car" route="N_S" depart="149.0" />
    <vehicle id="W_N_98" type="standard_car" route="W_N" depart="151.0" />
    <vehicle id="N_S_99" type="standard_car" route="N_S" depart="153.0" />
    <vehicle id="S_N_100" type="standard_car" route="S_N" depart="153.0" />
    <vehicle id="W_S_101" type="standard_car" route="W_S" depart="155.0" />
    <vehicle id="E_W_102" type="standard_car" route="E_W" depart="156.0" />
    <vehicle id="S_W_103" type="standard_car" route="S_W" depart="157.0" />
    <vehicle id="E_S_104" type="standard_car" route="E_S" depart="157.0" />
    <vehicle id="E_N_105" type="standard_car" route="E_N" depart="157.0" />
    <vehicle id="E_W_106" type="standard_car" route="E_W" depart="158.0" />
    <vehicle id="E_N_107" type="standard_car" route="E_N" depart="159.0" />
    <vehicle id="S_N_108" type="standard_car" route="S_N" depart="159.0" />
    <vehicle id="W_E_109" type="standard_car" route="W_E" depart="160.0" />
    <vehicle id="S_N_110" type="standard_car" route="S_N" depart="160.0" />
    <vehicle id="S_N_111" type="standard_car" route="S_N" depart="162.0" />
    <vehicle id="E_N_112" type="standard_car" route="E_N" depart="162.0" />
    <vehicle id="N_S_113" type="standard_car" route="N_S" depart="163.0" />
    <vehicle id="E_W_114" type="standard_car" route="E_W" depart="163.0" />
    <vehicle id="N_W_115" type="standard_car" route="N_W" depart="165.0" />
    <vehicle id="E_W_116" type="standard_car" route="E_W" depart="165.0" />
    <vehicle id="W_E_117" type="standard_car" route="W_E" depart="166.0" />
    <vehicle id="E_W_118" type="standard_car" route="E_W" depart="166.0" />
    <vehicle id="N_S_119" type="standard_car" route="N_S" depart="168.0" />
    <vehicle id="S_N_120" type="standard_car" route="S_N" depart="168.0" />
    <vehicle id="S_N_121" type="standard_car" route="S_N" depart="169.0" />
    <vehicle id="S_N_122" type="standard_car" route="S_N" depart="169.0" />
    <vehicle id="E_W_123" type="standard_car" route="E_W" depart="170.0" />
    <vehicle id="S_N_124" type="standard_car" route="S_N" depart="171.0" />
    <vehicle id="E_W_125" type="standard_car" route="E_W" depart="173.0" />
    <vehicle id="W_E_126" type="standard_car" route="W_E" depart="174.0" />
    <vehicle id="S_N_127" type="standard_car" route="S_N" depart="174.0" />
    <vehicle id="N_S_128" type="standard_car" route="N_S" depart="174.0" />
    <vehicle id="W_E_129" type="standard_car" route="W_E" depart="174.0" />
    <vehicle id="S_N_130" type="standard_car" route="S_N" depart="175.0" />
    <vehicle id="E_W_131" type="standard_car" route="E_W" depart="176.0" />
    <vehicle id="W_S_132" type="standard_car" route="W_S" depart="177.0" />
    <vehicle id="W_E_133" type="standard_car" route="W_E" depart="178.0" />
    <vehicle id="S_N_134" type="standard_car" route="S_N" depart="179.0" />
    <vehicle id="W_E_135" type="standard_car" route="W_E" depart="179.0" />
    <vehicle id="N_S_136" type="standard_car" route="N_S" depart="180.0" />
    <vehicle id="W_E_137" type="standard_car" route="W_E" depart="181.0" />
    <vehicle id="N_S_138" type="standard_car" route="N_S" depart="182.0" />
    <vehicle id="N_S_139" type="standard_car" route="N_S" depart="182.0" />
    <vehicle id="N_S_140" type="standard_car" route="N_S" depart="182.0" />
    <vehicle id="E_W_141" type="standard_car" route="E_W" depart="183.0" />
    <vehicle id="W_E_142" type="standard_car" route="W_E" depart="183.0" />
    <vehicle id="W_E_143" type="standard_car" route="W_E" depart="183.0" />
    <vehicle id="W_E_144" type="standard_car" route="W_E" depart="184.0" />
    <vehicle id="N_S_145" type="standard_car" route="N_S" depart="185.0" />
    <vehicle id="S_N_146" type="standard_car" route="S_N" depart="186.0" />
    <vehicle id="S_E_147" type="standard_car" route="N_E" depart="187.0" />
    <vehicle id="S_N_148" type="standard_car" route="S_N" depart="187.0" />
    <vehicle id="S_W_149" type="standard_car" route="S_W" depart="187.0" />
    <vehicle id="S_N_150" type="standard_car" route="S_N" depart="187.0" />
    <vehicle id="E_W_151" type="standard_car" route="E_W" depart="188.0" />
    <vehicle id="S_W_152" type="standard_car" route="S_W" depart="188.0" />
    <vehicle id="E_S_153" type="standard_car" route="E_S" depart="188.0" />
    <vehicle id="S_W_154" type="standard_car" route="S_W" depart="190.0" />
    <vehicle id="N_S_155" type="standard_car" route="N_S" depart="190.0" />
    <vehicle id="W_E_156" type="standard_car" route="W_E" depart="190.0" />
    <vehicle id="W_E_157" type="standard_car" route="W_E" depart="190.0" />
    <vehicle id="W_E_158" type="standard_car" route="W_E" depart="190.0" />
    <vehicle id="E_W_159" type="standard_car" route="E_W" depart="191.0" />
    <vehicle id="S_N_160" type="standard_car" route="S_N" depart="191.0" />
    <vehicle id="N_E_161" type="standard_car" route="N_E" depart="192.0" />
    <vehicle id="W_E_162" type="standard_car" route="W_E" depart="192.0" />
    <vehicle id="N_E_163" type="standard_car" route="N_E" depart="193.0" />
    <vehicle id="E_W_164" type="standard_car" route="E_W" depart="194.0" />
    <vehicle id="S_N_165" type="standard_car" route="S_N" depart="194.0" />
    <vehicle id="W_E_166" type="standard_car" route="W_E" depart="194.0" />
    <vehicle id="E_W_167" type="standard_car" route="E_W" depart="194.0" />
    <vehicle id="E_W_168" type="standard_car" route="E_W" depart="195.0" />
    <vehicle id="W_E_169" type="standard_car" route="W_E" depart="197.0" />
    <vehicle id="S_N_170" type="standard_car" route="S_N" depart="198.0" />
    <vehicle id="E_W_171" type="standard_car" route="E_W" depart="198.0" />
    <vehicle id="E_S_172" type="standard_car" route="E_S" depart="198.0" />
    <vehicle id="W_N_173" type="standard_car" route="W_N" depart="198.0" />
    <vehicle id="S_N_174" type="standard_car" route="S_N" depart="198.0" />
    <vehicle id="N_S_175" type="standard_car" route="N_S" depart="198.0" />
    <vehicle id="N_S_176" type="standard_car" route="N_S" depart="199.0" />
    <vehicle id="W_N_177" type="standard_car" route="W_N" depart="200.0" />
    <vehicle id="S_E_178" type="standard_car" route="N_E" depart="200.0" />
    <vehicle id="W_N_179" type="standard_car" route="W_N" depart="203.0" />
    <vehicle id="E_W_180" type="standard_car" route="E_W" depart="203.0" />
    <vehicle id="S_E_181" type="standard_car" route="N_E" depart="205.0" />
    <vehicle id="S_N_182" type="standard_car" route="S_N" depart="205.0" />
    <vehicle id="N_E_183" type="standard_car" route="N_E" depart="206.0" />
    <vehicle id="N_S_184" type="standard_car" route="N_S" depart="209.0" />
    <vehicle id="E_W_185" type="standard_car" route="E_W" depart="209.0" />
    <vehicle id="W_E_186" type="standard_car" route="W_E" depart="209.0" />
    <vehicle id="W_E_187" type="standard_car" route="W_E" depart="209.0" />
    <vehicle id="E_S_188" type="standard_car" route="E_S" depart="210.0" />
    <vehicle id="W_N_189" type="standard_car" route="W_N" depart="210.0" />
    <vehicle id="W_S_190" type="standard_car" route="W_S" depart="212.0" />
    <vehicle id="E_W_191" type="standard_car" route="E_W" depart="212.0" />
    <vehicle id="E_W_192" type="standard_car" route="E_W" depart="213.0" />
    <vehicle id="S_N_193" type="standard_car" route="S_N" depart="213.0" />
    <vehicle id="W_E_194" type="standard_car" route="W_E" depart="213.0" />
    <vehicle id="N_S_195" type="standard_car" route="N_S" depart="213.0" />
    <vehicle id="S_N_196" type="standard_car" route="S_N" depart="214.0" />
    <vehicle id="W_E_197" type="standard_car" route="W_E" depart="214.0" />
    <vehicle id="E_S_198" type="standard_car" route="E_S" depart="214.0" />
    <vehicle id="N_S_199" type="standard_car" route="N_S" depart="215.0" />
    <vehicle id="N_S_200" type="standard_car" route="N_S" depart="216.0" />
    <vehicle id="E_W_201" type="standard_car" route="E_W" depart="216.0" />
    <vehicle id="E_W_202" type="standard_car" route="E_W" depart="217.0" />
    <vehicle id="S_N_203" type="standard_car" route="S_N" depart="218.0" />
    <vehicle id="W_E_204" type="standard_car" route="W_E" depart="218.0" />
    <vehicle id="E_W_205" type="standard_car" route="E_W" depart="219.0" />
    <vehicle id="N_W_206" type="standard_car" route="N_W" depart="221.0" />
    <vehicle id="S_N_207" type="standard_car" route="S_N" depart="222.0" />
    <vehicle id="S_N_208" type="standard_car" route="S_N" depart="222.0" />
    <vehicle id="N_E_209" type="standard_car" route="N_E" depart="222.0" />
    <vehicle id="E_W_210" type="standard_car" route="E_W" depart="222.0" />
    <vehicle id="N_S_211" type="standard_car" route="N_S" depart="223.0" />
    <vehicle id="W_E_212" type="standard_car" route="W_E" depart="224.0" />
    <vehicle id="E_S_213" type="standard_car" route="E_S" depart="226.0" />
    <vehicle id="N_S_214" type="standard_car" route="N_S" depart="226.0" />
    <vehicle id="W_E_215" type="standard_car" route="W_E" depart="227.0" />
    <vehicle id="W_E_216" type="standard_car" route="W_E" depart="227.0" />
    <vehicle id="S_N_217" type="standard_car" route="S_N" depart="228.0" />
    <vehicle id="N_S_218" type="standard_car" route="N_S" depart="229.0" />
    <vehicle id="S_W_219" type="standard_car" route="S_W" depart="229.0" />
    <vehicle id="E_W_220" type="standard_car" route="E_W" depart="230.0" />
    <vehicle id="N_S_221" type="standard_car" route="N_S" depart="231.0" />
    <vehicle id="N_S_222" type="standard_car" route="N_S" depart="231.0" />
    <vehicle id="W_E_223" type="standard_car" route="W_E" depart="232.0" />
    <vehicle id="S_E_224" type="standard_car" route="N_E" depart="233.0" />
    <vehicle id="S_E_225" type="standard_car" route="N_E" depart="234.0" />
    <vehicle id="N_S_226" type="standard_car" route="N_S" depart="236.0" />
    <vehicle id="E_W_227" type="standard_car" route="E_W" depart="236.0" />
    <vehicle id="E_S_228" type="standard_car" route="E_S" depart="236.0" />
    <vehicle id="S_N_229" type="standard_car" route="S_N" depart="236.0" />
    <vehicle id="E_W_230" type="standard_car" route="E_W" depart="236.0" />
    <vehicle id="N_S_231" type="standard_car" route="N_S" depart="238.0" />
    <vehicle id="N_S_232" type="standard_car" route="N_S" depart="239.0" />
    <vehicle id="E_W_233" type="standard_car" route="E_W" depart="239.0" />
    <vehicle id="N_S_234" type="standard_car" route="N_S" depart="240.0" />
    <vehicle id="W_E_235" type="standard_car" route="W_E" depart="240.0" />
    <vehicle id="S_N_236" type="standard_car" route="S_N" depart="240.0" />
    <vehicle id="W_E_237" type="standard_car" route="W_E" depart="242.0" />
    <vehicle id="W_E_238" type="standard_car" route="W_E" depart="242.0" />
    <vehicle id="E_W_239" type="standard_car" route="E_W" depart="242.0" />
    <vehicle id="W_E_240" type="standard_car" route="W_E" depart="243.0" />
    <vehicle id="W_E_241" type="standard_car" route="W_E" depart="244.0" />
    <vehicle id="E_S_242" type="standard_car" route="E_S" depart="244.0" />
    <vehicle id="E_W_243" type="standard_car" route="E_W" depart="244.0" />
    <vehicle id="W_E_244" type="standard_car" route="W_E" depart="245.0" />
    <vehicle id="S_N_245" type="standard_car" route="S_N" depart="245.0" />
    <vehicle id="S_N_246" type="standard_car" route="S_N" depart="245.0" />
    <vehicle id="E_S_247" type="standard_car" route="E_S" depart="246.0" />
    <vehicle id="N_S_248" type="standard_car" route="N_S" depart="246.0" />
    <vehicle id="W_N_249" type="standard_car" route="W_N" depart="246.0" />
    <vehicle id="E_N_250" type="standard_car" route="E_N" depart="246.0" />
    <vehicle id="W_E_251" type="standard_car" route="W_E" depart="246.0" />
    <vehicle id="W_E_252" type="standard_car" route="W_E" depart="246.0" />
    <vehicle id="E_W_253" type="standard_car" route="E_W" depart="247.0" />
    <vehicle id="S_N_254" type="standard_car" route="S_N" depart="247.0" />
    <vehicle id="W_E_255" type="standard_car" route="W_E" depart="247.0" />
    <vehicle id="W_E_256" type="standard_car" route="W_E" depart="248.0" />
    <vehicle id="S_W_257" type="standard_car" route="S_W" depart="248.0" />
    <vehicle id="E_S_258" type="standard_car" route="E_S" depart="248.0" />
    <vehicle id="E_S_259" type="standard_car" route="E_S" depart="248.0" />
    <vehicle id="W_E_260" type="standard_car" route="W_E" depart="249.0" />
    <vehicle id="E_W_261" type="standard_car" route="E_W" depart="249.0" />
    <vehicle id="N_W_262" type="standard_car" route="N_W" depart="250.0" />
    <vehicle id="E_W_263" type="standard_car" route="E_W" depart="250.0" />
    <vehicle id="E_W_264" type="standard_car" route="E_W" depart="251.0" />
    <vehicle id="N_S_265" type="standard_car" route="N_S" depart="251.0" />
    <vehicle id="N_W_266" type="standard_car" route="N_W" depart="252.0" />
    <vehicle id="E_W_267" type="standard_car" route="E_W" depart="252.0" />
    <vehicle id="E_S_268" type="standard_car" route="E_S" depart="252.0" />
    <vehicle id="N_S_269" type="standard_car" route="N_S" depart="253.0" />
    <vehicle id="W_E_270" type="standard_car" route="W_E" depart="254.0" />
    <vehicle id="W_E_271" type="standard_car" route="W_E" depart="254.0" />
    <vehicle id="W_E_272" type="standard_car" route="W_E" depart="255.0" />
    <vehicle id="N_E_273" type="standard_car" route="N_E" depart="255.0" />
    <vehicle id="S_N_274" type="standard_car" route="S_N" depart="255.0" />
    <vehicle id="E_W_275" type="standard_car" route="E_W" depart="255.0" />
    <vehicle id="S_N_276" type="standard_car" route="S_N" depart="255.0" />
    <vehicle id="E_W_277" type="standard_car" route="E_W" depart="255.0" />
    <vehicle id="S_N_278" type="standard_car" route="S_N" depart="256.0" />
    <vehicle id="N_S_279" type="standard_car" route="N_S" depart="256.0" />
    <vehicle id="N_S_280" type="standard_car" route="N_S" depart="257.0" />
    <vehicle id="S_N_281" type="standard_car" route="S_N" depart="258.0" />
    <vehicle id="N_W_282" type="standard_car" route="N_W" depart="258.0" />
    <vehicle id="S_E_283" type="standard_car" route="N_E" depart="258.0" />
    <vehicle id="W_E_284" type="standard_car" route="W_E" depart="260.0" />
    <vehicle id="E_W_285" type="standard_car" route="E_W" depart="260.0" />
    <vehicle id="E_S_286" type="standard_car" route="E_S" depart="261.0" />
    <vehicle id="E_N_287" type="standard_car" route="E_N" depart="263.0" />
    <vehicle id="W_E_288" type="standard_car" route="W_E" depart="263.0" />
    <vehicle id="E_W_289" type="standard_car" route="E_W" depart="264.0" />
    <vehicle id="E_W_290" type="standard_car" route="E_W" depart="264.0" />
    <vehicle id="S_N_291" type="standard_car" route="S_N" depart="264.0" />
    <vehicle id="N_S_292" type="standard_car" route="N_S" depart="264.0" />
    <vehicle id="E_N_293" type="standard_car" route="E_N" depart="266.0" />
    <vehicle id="E_N_294" type="standard_car" route="E_N" depart="266.0" />
    <vehicle id="S_N_295" type="standard_car" route="S_N" depart="267.0" />
    <vehicle id="S_N_296" type="standard_car" route="S_N" depart="267.0" />
    <vehicle id="W_N_297" type="standard_car" route="W_N" depart="267.0" />
    <vehicle id="N_W_298" type="standard_car" route="N_W" depart="268.0" />
    <vehicle id="S_W_299" type="standard_car" route="S_W" depart="268.0" />
    <vehicle id="S_N_300" type="standard_car" route="S_N" depart="269.0" />
    <vehicle id="S_N_301" type="standard_car" route="S_N" depart="269.0" />
    <vehicle id="N_S_302" type="standard_car" route="N_S" depart="270.0" />
    <vehicle id="E_S_303" type="standard_car" route="E_S" depart="270.0" />
    <vehicle id="S_N_304" type="standard_car" route="S_N" depart="271.0" />
    <vehicle id="E_W_305" type="standard_car" route="E_W" depart="271.0" />
    <vehicle id="W_E_306" type="standard_car" route="W_E" depart="271.0" />
    <vehicle id="S_N_307" type="standard_car" route="S_N" depart="272.0" />
    <vehicle id="E_W_308" type="standard_car" route="E_W" depart="272.0" />
    <vehicle id="W_E_309" type="standard_car" route="W_E" depart="272.0" />
    <vehicle id="E_W_310" type="standard_car" route="E_W" depart="272.0" />
    <vehicle id="W_E_311" type="standard_car" route="W_E" depart="272.0" />
    <vehicle id="N_S_312" type="standard_car" route="N_S" depart="273.0" />
    <vehicle id="E_W_313" type="standard_car" route="E_W" depart="273.0" />
    <vehicle id="S_N_314" type="standard_car" route="S_N" depart="274.0" />
    <vehicle id="N_E_315" type="standard_car" route="N_E" depart="275.0" />
    <vehicle id="W_E_316" type="standard_car" route="W_E" depart="276.0" />
    <vehicle id="W_E_317" type="standard_car" route="W_E" depart="277.0" />
    <vehicle id="E_S_318" type="standard_car" route="E_S" depart="277.0" />
    <vehicle id="W_E_319" type="standard_car" route="W_E" depart="277.0" />
    <vehicle id="W_E_320" type="standard_car" route="W_E" depart="277.0" />
    <vehicle id="N_W_321" type="standard_car" route="N_W" depart="277.0" />
    <vehicle id="S_N_322" type="standard_car" route="S_N" depart="278.0" />
    <vehicle id="S_N_323" type="standard_car" route="S_N" depart="279.0" />
    <vehicle id="W_N_324" type="standard_car" route="W_N" depart="279.0" />
    <vehicle id="N_S_325" type="standard_car" route="N_S" depart="279.0" />
    <vehicle id="S_E_326" type="standard_car" route="N_E" depart="280.0" />
    <vehicle id="S_N_327" type="standard_car" route="S_N" depart="280.0" />
    <vehicle id="N_S_328" type="standard_car" route="N_S" depart="281.0" />
    <vehicle id="E_W_329" type="standard_car" route="E_W" depart="281.0" />
    <vehicle id="N_E_330" type="standard_car" route="N_E" depart="282.0" />
    <vehicle id="S_N_331" type="standard_car" route="S_N" depart="283.0" />
    <vehicle id="W_E_332" type="standard_car" route="W_E" depart="283.0" />
    <vehicle id="S_N_333" type="standard_car" route="S_N" depart="283.0" />
    <vehicle id="W_E_334" type="standard_car" route="W_E" depart="284.0" />
    <vehicle id="E_N_335" type="standard_car" route="E_N" depart="287.0" />
    <vehicle id="N_S_336" type="standard_car" route="N_S" depart="288.0" />
    <vehicle id="E_W_337" type="standard_car" route="E_W" depart="289.0" />
    <vehicle id="E_N_338" type="standard_car" route="E_N" depart="289.0" />
    <vehicle id="W_E_339" type="standard_car" route="W_E" depart="289.0" />
    <vehicle id="W_E_340" type="standard_car" route="W_E" depart="291.0" />
    <vehicle id="E_W_341" type="standard_car" route="E_W" depart="292.0" />
    <vehicle id="N_S_342" type="standard_car" route="N_S" depart="292.0" />
    <vehicle id="W_E_343" type="standard_car" route="W_E" depart="292.0" />
    <vehicle id="N_S_344" type="standard_car" route="N_S" depart="292.0" />
    <vehicle id="S_W_345" type="standard_car" route="S_W" depart="293.0" />
    <vehicle id="N_S_346" type="standard_car" route="N_S" depart="294.0" />
    <vehicle id="E_W_347" type="standard_car" route="E_W" depart="294.0" />
    <vehicle id="W_E_348" type="standard_car" route="W_E" depart="295.0" />
    <vehicle id="N_S_349" type="standard_car" route="N_S" depart="296.0" />
    <vehicle id="N_E_350" type="standard_car" route="N_E" depart="297.0" />
    <vehicle id="E_W_351" type="standard_car" route="E_W" depart="297.0" />
    <vehicle id="W_E_352" type="standard_car" route="W_E" depart="297.0" />
    <vehicle id="N_S_353" type="standard_car" route="N_S" depart="297.0" />
    <vehicle id="N_S_354" type="standard_car" route="N_S" depart="298.0" />
    <vehicle id="E_W_355" type="standard_car" route="E_W" depart="298.0" />
    <vehicle id="N_W_356" type="standard_car" route="N_W" depart="298.0" />
    <vehicle id="S_N_357" type="standard_car" route="S_N" depart="299.0" />
    <vehicle id="W_E_358" type="standard_car" route="W_E" depart="299.0" />
    <vehicle id="W_E_359" type="standard_car" route="W_E" depart="300.0" />
    <vehicle id="E_W_360" type="standard_car" route="E_W" depart="301.0" />
    <vehicle id="E_W_361" type="standard_car" route="E_W" depart="301.0" />
    <vehicle id="W_E_362" type="standard_car" route="W_E" depart="303.0" />
    <vehicle id="N_S_363" type="standard_car" route="N_S" depart="304.0" />
    <vehicle id="S_N_364" type="standard_car" route="S_N" depart="304.0" />
    <vehicle id="S_N_365" type="standard_car" route="S_N" depart="304.0" />
    <vehicle id="W_E_366" type="standard_car" route="W_E" depart="305.0" />
    <vehicle id="E_W_367" type="standard_car" route="E_W" depart="306.0" />
    <vehicle id="N_S_368" type="standard_car" route="N_S" depart="306.0" />
    <vehicle id="E_W_369" type="standard_car" route="E_W" depart="308.0" />
    <vehicle id="N_S_370" type="standard_car" route="N_S" depart="308.0" />
    <vehicle id="S_E_371" type="standard_car" route="N_E" depart="308.0" />
    <vehicle id="N_S_372" type="standard_car" route="N_S" depart="309.0" />
    <vehicle id="N_S_373" type="standard_car" route="N_S" depart="309.0" />
    <vehicle id="W_E_374" type="standard_car" route="W_E" depart="309.0" />
    <vehicle id="W_E_375" type="standard_car" route="W_E" depart="309.0" />
    <vehicle id="S_E_376" type="standard_car" route="N_E" depart="310.0" />
    <vehicle id="E_W_377" type="standard_car" route="E_W" depart="310.0" />
    <vehicle id="S_E_378" type="standard_car" route="N_E" depart="310.0" />
    <vehicle id="E_S_379" type="standard_car" route="E_S" depart="311.0" />
    <vehicle id="S_N_380" type="standard_car" route="S_N" depart="311.0" />
    <vehicle id="E_W_381" type="standard_car" route="E_W" depart="311.0" />
    <vehicle id="E_W_382" type="standard_car" route="E_W" depart="312.0" />
    <vehicle id="S_N_383" type="standard_car" route="S_N" depart="312.0" />
    <vehicle id="N_S_384" type="standard_car" route="N_S" depart="312.0" />
    <vehicle id="E_W_385" type="standard_car" route="E_W" depart="312.0" />
    <vehicle id="S_N_386" type="standard_car" route="S_N" depart="312.0" />
    <vehicle id="N_S_387" type="standard_car" route="N_S" depart="312.0" />