<routes>
    <vType accel="1.0" decel="4.5" id="standard_car" length="5.0" minGap="2.5" maxSpeed="25" sigma="0.5" />

    <route id="W_N" edges="W2TL TL2N"/>
    <route id="W_E" edges="W2TL TL2E"/>
    <route id="W_S" edges="W2TL TL2S"/>
    <route id="N_W" edges="N2TL TL2W"/>
    <route id="N_E" edges="N2TL TL2E"/>
    <route id="N_S" edges="N2TL TL2S"/>
    <route id="E_W" edges="E2TL TL2W"/>
    <route id="E_N" edges="E2TL TL2N"/>
    <route id="E_S" edges="E2TL TL2S"/>
    <route id="S_W" edges="S2TL TL2W"/>
    <route id="S_N" edges="S2TL TL2N"/>
    <route id="S_E" edges="S2TL TL2E"/>    <vehicle id="W_S_0" type="standard_car" route="W_S" depart="14.0" />    <vehicle id="S_N_1" type="standard_car" route="S_N" depart="18.0" />    <vehicle id="W_E_2" type="standard_car" route="W_E" depart="21.0" />    <vehicle id="S_E_3" type="standard_car" route="N_E" depart="23.0" />    <vehicle id="E_S_4" type="standard_car" route="E_S" depart="23.0" />    <vehicle id="W_E_5" type="standard_car" route="W_E" depart="25.0" />    <vehicle id="S_N_6" type="standard_car" route="S_N" depart="25.0" />    <vehicle id="E_W_7" type="standard_car" route="E_W" depart="25.0" />    <vehicle id="E_S_8" type="standard_car" route="E_S" depart="25.0" />    <vehicle id="E_W_9" type="standard_car" route="E_W" depart="28.0" />    <vehicle id="W_E_10" type="standard_car" route="W_E" depart="33.0" />    <vehicle id="W_E_11" type="standard_car" route="W_E" depart="43.0" />    <vehicle id="E_S_12" type="standard_car" route="E_S" depart="48.0" />    <vehicle id="E_W_13" type="standard_car" route="E_W" depart="48.0" />    <vehicle id="N_S_14" type="standard_car" route="N_S" depart="49.0" />    <vehicle id="W_E_15" type="standard_car" route="W_E" depart="51.0" />    <vehicle id="N_S_16" type="standard_car" route="N_S" depart="51.0" />    <vehicle id="W_E_17" type="standard_car" route="W_E" depart="51.0" />    <vehicle id="W_N_18" type="standard_car" route="W_N" depart="52.0" />    <vehicle id="E_W_19" type="standard_car" route="E_W" depart="54.0" />    <vehicle id="N_S_20" type="standard_car" route="N_S" depart="55.0" />    <vehicle id="N_S_21" type="standard_car" route="N_S" depart="55.0" />    <vehicle id="N_E_22" type="standard_car" route="N_E" depart="58.0" />    <vehicle id="S_N_23" type="standard_car" route="S_N" depart="59.0" />    <vehicle id="N_S_24" type="standard_car" route="N_S" depart="61.0" />    <vehicle id="N_S_25" type="standard_car" route="N_S" depart="61.0" />    <vehicle id="W_E_26" type="standard_car" route="W_E" depart="62.0" />    <vehicle id="W_E_27" type="standard_car" route="W_E" depart="64.0" />    <vehicle id="W_E_28" type="standard_car" route="W_E" depart="66.0" />    <vehicle id="E_W_29" type="standard_car" route="E_W" depart="66.0" />    <vehicle id="S_N_30" type="standard_car" route="S_N" depart="67.0" />    <vehicle id="E_W_31" type="standard_car" route="E_W" depart="67.0" />    <vehicle id="S_E_32" type="standard_car" route="N_E" depart="68.0" />    <vehicle id="N_S_33" type="standard_car" route="N_S" depart="70.0" />    <vehicle id="E_W_34" type="standard_car" route="E_W" depart="71.0" />    <vehicle id="W_E_35" type="standard_car" route="W_E" depart="72.0" />    <vehicle id="E_W_36" type="standard_car" route="E_W" depart="72.0" />    <vehicle id="E_W_37" type="standard_car" route="E_W" depart="76.0" />    <vehicle id="W_N_38" type="standard_car" route="W_N" depart="77.0" />    <vehicle id="W_E_39" type="standard_car" route="W_E" depart="77.0" />    <vehicle id="E_W_40" type="standard_car" route="E_W" depart="78.0" />    <vehicle id="S_N_41" type="standard_car" route="S_N" depart="79.0" />    <vehicle id="W_E_42" type="standard_car" route="W_E" depart="81.0" />    <vehicle id="W_E_43" type="standard_car" route="W_E" depart="81.0" />    <vehicle id="E_N_44" type="standard_car" route="E_N" depart="82.0" />    <vehicle id="W_S_45" type="standard_car" route="W_S" depart="83.0" />    <vehicle id="N_E_46" type="standard_car" route="N_E" depart="83.0" />    <vehicle id="N_S_47" type="standard_car" route="N_S" depart="83.0" />    <vehicle id="E_S_48" type="standard_car" route="E_S" depart="84.0" />    <vehicle id="W_E_49" type="standard_car" route="W_E" depart="84.0" />    <vehicle id="N_S_50" type="standard_car" route="N_S" depart="85.0" />    <vehicle id="S_N_51" type="standard_car" route="S_N" depart="86.0" />    <vehicle id="W_E_52" type="standard_car" route="W_E" depart="86.0" />    <vehicle id="W_E_53" type="standard_car" route="W_E" depart="87.0" />    <vehicle id="S_N_54" type="standard_car" route="S_N" depart="87.0" />    <vehicle id="W_E_55" type="standard_car" route="W_E" depart="87.0" />    <vehicle id="N_S_56" type="standard_car" route="N_S" depart="89.0" />    <vehicle id="E_W_57" type="standard_car" route="E_W" depart="89.0" />    <vehicle id="N_S_58" type="standard_car" route="N_S" depart="90.0" />    <vehicle id="W_E_59" type="standard_car" route="W_E" depart="90.0" />    <vehicle id="N_S_60" type="standard_car" route="N_S" depart="91.0" />    <vehicle id="S_N_61" type="standard_car" route="S_N" depart="91.0" />    <vehicle id="S_W_62" type="standard_car" route="S_W" depart="92.0" />    <vehicle id="S_N_63" type="standard_car" route="S_N" depart="93.0" />    <vehicle id="W_N_64" type="standard_car" route="W_N" depart="93.0" />    <vehicle id="E_W_65" type="standard_car" route="E_W" depart="93.0" />    <vehicle id="S_N_66" type="standard_car" route="S_N" depart="95.0" />    <vehicle id="W_N_67" type="standard_car" route="W_N" depart="97.0" />    <vehicle id="E_W_68" type="standard_car" route="E_W" depart="98.0" />    <vehicle id="W_N_69" type="standard_car" route="W_N" depart="99.0" />    <vehicle id="W_E_70" type="standard_car" route="W_E" depart="99.0" />    <vehicle id="W_N_71" type="standard_car" route="W_N" depart="99.0" />    <vehicle id="W_E_72" type="standard_car" route="W_E" depart="100.0" />    <vehicle id="N_S_73" type="standard_car" route="N_S" depart="101.0" />    <vehicle id="W_E_74" type="standard_car" route="W_E" depart="101.0" />    <vehicle id="S_E_75" type="standard_car" route="N_E" depart="102.0" />    <vehicle id="W_S_76" type="standard_car" route="W_S" depart="104.0" />    <vehicle id="N_S_77" type="standard_car" route="N_S" depart="105.0" />    <vehicle id="E_W_78" type="standard_car" route="E_W" depart="105.0" />    <vehicle id="E_W_79" type="standard_car" route="E_W" depart="107.0" />    <vehicle id="E_S_80" type="standard_car" route="E_S" depart="107.0" />    <vehicle id="N_S_81" type="standard_car" route="N_S" depart="108.0" />    <vehicle id="N_S_82" type="standard_car" route="N_S" depart="108.0" />    <vehicle id="W_E_83" type="standard_car" route="W_E" depart="108.0" />    <vehicle id="N_S_84" type="standard_car" route="N_S" depart="108.0" />    <vehicle id="S_N_85" type="standard_car" route="S_N" depart="109.0" />    <vehicle id="N_S_86" type="standard_car" route="N_S" depart="109.0" />    <vehicle id="N_S_87" type="standard_car" route="N_S" depart="109.0" />    <vehicle id="W_N_88" type="standard_car" route="W_N" depart="110.0" />    <vehicle id="E_N_89" type="standard_car" route="E_N" depart="110.0" />    <vehicle id="N_S_90" type="standard_car" route="N_S" depart="111.0" />    <vehicle id="N_S_91" type="standard_car" route="N_S" depart="111.0" />    <vehicle id="E_W_92" type="standard_car" route="E_W" depart="112.0" />    <vehicle id="E_S_93" type="standard_car" route="E_S" depart="113.0" />    <vehicle id="W_E_94" type="standard_car" route="W_E" depart="113.0" />    <vehicle id="N_E_95" type="standard_car" route="N_E" depart="113.0" />    <vehicle id="W_E_96" type="standard_car" route="W_E" depart="114.0" />    <vehicle id="N_E_97" type="standard_car" route="N_E" depart="115.0" />    <vehicle id="N_S_98" type="standard_car" route="N_S" depart="115.0" />    <vehicle id="E_W_99" type="standard_car" route="E_W" depart="118.0" />    <vehicle id="W_E_100" type="standard_car" route="W_E" depart="119.0" />    <vehicle id="N_S_101" type="standard_car" route="N_S" depart="119.0" />    <vehicle id="S_N_102" type="standard_car" route="S_N" depart="120.0" />    <vehicle id="E_W_103" type="standard_car" route="E_W" depart="120.0" />    <vehicle id="S_E_104" type="standard_car" route="N_E" depart="121.0" />    <vehicle id="W_S_105" type="standard_car" route="W_S" depart="122.0" />    <vehicle id="W_E_106" type="standard_car" route="W_E" depart="122.0" />    <vehicle id="S_N_107" type="standard_car" route="S_N" depart="122.0" />    <vehicle id="N_S_108" type="standard_car" route="N_S" depart="123.0" />    <vehicle id="W_S_109" type="standard_car" route="W_S" depart="123.0" />    <vehicle id="N_W_110" type="standard_car" route="N_W" depart="124.0" />    <vehicle id="N_S_111" type="standard_car" route="N_S" depart="124.0" />    <vehicle id="S_N_112" type="standard_car" route="S_N" depart="124.0" />    <vehicle id="S_N_113" type="standard_car" route="S_N" depart="124.0" />    <vehicle id="W_E_114" type="standard_car" route="W_E" depart="125.0" />    <vehicle id="E_W_115" type="standard_car" route="E_W" depart="125.0" />    <vehicle id="W_E_116" type="standard_car" route="W_E" depart="125.0" />    <vehicle id="W_N_117" type="standard_car" route="W_N" depart="125.0" />    <vehicle id="S_W_118" type="standard_car" route="S_W" depart="126.0" />    <vehicle id="E_W_119" type="standard_car" route="E_W" depart="127.0" />    <vehicle id="N_S_120" type="standard_car" route="N_S" depart="127.0" />    <vehicle id="N_S_121" type="standard_car" route="N_S" depart="128.0" />    <vehicle id="S_N_122" type="standard_car" route="S_N" depart="128.0" />    <vehicle id="S_E_123" type="standard_car" route="N_E" depart="129.0" />    <vehicle id="N_S_124" type="standard_car" route="N_S" depart="129.0" />    <vehicle id="E_W_125" type="standard_car" route="E_W" depart="129.0" />    <vehicle id="E_W_126" type="standard_car" route="E_W" depart="129.0" />    <vehicle id="S_E_127" type="standard_car" route="N_E" depart="129.0" />    <vehicle id="N_S_128" type="standard_car" route="N_S" depart="130.0" />    <vehicle id="N_S_129" type="standard_car" route="N_S" depart="131.0" />    <vehicle id="W_E_130" type="standard_car" route="W_E" depart="132.0" />    <vehicle id="W_E_131" type="standard_car" route="W_E" depart="132.0" />    <vehicle id="S_N_132" type="standard_car" route="S_N" depart="133.0" />    <vehicle id="W_E_133" type="standard_car" route="W_E" depart="133.0" />    <vehicle id="E_W_134" type="standard_car" route="E_W" depart="134.0" />    <vehicle id="N_S_135" type="standard_car" route="N_S" depart="134.0" />    <vehicle id="S_N_136" type="standard_car" route="S_N" depart="134.0" />    <vehicle id="W_E_137" type="standard_car" route="W_E" depart="135.0" />    <vehicle id="S_N_138" type="standard_car" route="S_N" depart="135.0" />    <vehicle id="W_E_139" type="standard_car" route="W_E" depart="136.0" />    <vehicle id="S_N_140" type="standard_car" route="S_N" depart="137.0" />    <vehicle id="E_W_141" type="standard_car" route="E_W" depart="137.0" />    <vehicle id="W_E_142" type="standard_car" route="W_E" depart="137.0" />    <vehicle id="S_N_143" type="standard_car" route="S_N" depart="139.0" />    <vehicle id="W_N_144" type="standard_car" route="W_N" depart="139.0" />    <vehicle id="E_W_145" type="standard_car" route="E_W" depart="140.0" />    <vehicle id="W_E_146" type="standard_car" route="W_E" depart="140.0" />    <vehicle id="N_S_147" type="standard_car" route="N_S" depart="141.0" />    <vehicle id="S_N_148" type="standard_car" route="S_N" depart="141.0" />    <vehicle id="N_S_149" type="standard_car" route="N_S" depart="142.0" />    <vehicle id="E_S_150" type="standard_car" route="E_S" depart="142.0" />    <vehicle id="N_E_151" type="standard_car" route="N_E" depart="143.0" />    <vehicle id="N_S_152" type="standard_car" route="N_S" depart="143.0" />    <vehicle id="S_N_153" type="standard_car" route="S_N" depart="144.0" />    <vehicle id="N_S_154" type="standard_car" route="N_S" depart="144.0" />    <vehicle id="E_S_155" type="standard_car" route="E_S" depart="144.0" />    <vehicle id="N_W_156" type="standard_car" route="N_W" depart="144.0" />    <vehicle id="E_W_157" type="standard_car" route="E_W" depart="145.0" />    <vehicle id="N_S_158" type="standard_car" route="N_S" depart="145.0" />    <vehicle id="E_W_159" type="standard_car" route="E_W" depart="146.0" />    <vehicle id="S_N_160" type="standard_car" route="S_N" depart="146.0" />    <vehicle id="S_N_161" type="standard_car" route="S_N" depart="146.0" />    <vehicle id="W_N_162" type="standard_car" route="W_N" depart="147.0" />    <vehicle id="S_N_163" type="standard_car" route="S_N" depart="147.0" />    <vehicle id="E_W_164" type="standard_car" route="E_W" depart="147.0" />    <vehicle id="S_E_165" type="standard_car" route="N_E" depart="147.0" />    <vehicle id="N_W_166" type="standard_car" route="N_W" depart="147.0" />    <vehicle id="W_E_167" type="standard_car" route="W_E" depart="148.0" />    <vehicle id="S_N_168" type="standard_car" route="S_N" depart="149.0" />    <vehicle id="W_S_169" type="standard_car" route="W_S" depart="149.0" />    <vehicle id="N_S_170" type="standard_car" route="N_S" depart="149.0" />    <vehicle id="E_W_171" type="standard_car" route="E_W" depart="150.0" />    <vehicle id="E_W_172" type="standard_car" route="E_W" depart="150.0" />    <vehicle id="S_N_173" type="standard_car" route="S_N" depart="150.0" />    <vehicle id="N_S_174" type="standard_car" route="N_S" depart="150.0" />    <vehicle id="E_W_175" type="standard_car" route="E_W" depart="150.0" />    <vehicle id="W_E_176" type="standard_car" route="W_E" depart="151.0" />    <vehicle id="N_S_177" type="standard_car" route="N_S" depart="152.0" />    <vehicle id="E_W_178" type="standard_car" route="E_W" depart="153.0" />    <vehicle id="S_N_179" type="standard_car" route="S_N" depart="153.0" />    <vehicle id="E_S_180" type="standard_car" route="E_S" depart="154.0" />    <vehicle id="W_E_181" type="standard_car" route="W_E" depart="155.0" />    <vehicle id="W_E_182" type="standard_car" route="W_E" depart="155.0" />    <vehicle id="N_E_183" type="standard_car" route="N_E" depart="155.0" />    <vehicle id="W_E_184" type="standard_car" route="W_E" depart="156.0" />    <vehicle id="E_N_185" type="standard_car" route="E_N" depart="156.0" />    <vehicle id="N_S_186" type="standard_car" route="N_S" depart="156.0" />    <vehicle id="E_S_187" type="standard_car" route="E_S" depart="156.0" />    <vehicle id="E_W_188" type="standard_car" route="E_W" depart="156.0" />    <vehicle id="S_N_189" type="standard_car" route="S_N" depart="157.0" />    <vehicle id="S_N_190" type="standard_car" route="S_N" depart="158.0" />    <vehicle id="E_W_191" type="standard_car" route="E_W" depart="158.0" />    <vehicle id="N_E_192" type="standard_car" route="N_E" depart="158.0" />    <vehicle id="S_N_193" type="standard_car" route="S_N" depart="158.0" />    <vehicle id="S_W_194" type="standard_car" route="S_W" depart="158.0" />    <vehicle id="N_S_195" type="standard_car" route="N_S" depart="158.0" />    <vehicle id="E_W_196" type="standard_car" route="E_W" depart="159.0" />    <vehicle id="E_W_197" type="standard_car" route="E_W" depart="160.0" />    <vehicle id="N_S_198" type="standard_car" route="N_S" depart="160.0" />    <vehicle id="W_N_199" type="standard_car" route="W_N" depart="161.0" />    <vehicle id="S_N_200" type="standard_car" route="S_N" depart="161.0" />    <vehicle id="N_S_201" type="standard_car" route="N_S" depart="161.0" />    <vehicle id="W_E_202" type="standard_car" route="W_E" depart="162.0" />    <vehicle id="S_E_203" type="standard_car" route="N_E" depart="163.0" />    <vehicle id="S_N_204" type="standard_car" route="S_N" depart="163.0" />    <vehicle id="S_N_205" type="standard_car" route="S_N" depart="164.0" />    <vehicle id="S_N_206" type="standard_car" route="S_N" depart="165.0" />    <vehicle id="S_N_207" type="standard_car" route="S_N" depart="165.0" />    <vehicle id="S_N_208" type="standard_car" route="S_N" depart="165.0" />    <vehicle id="S_N_209" type="standard_car" route="S_N" depart="166.0" />    <vehicle id="S_E_210" type="standard_car" route="N_E" depart="167.0" />    <vehicle id="E_W_211" type="standard_car" route="E_W" depart="167.0" />    <vehicle id="W_E_212" type="standard_car" route="W_E" depart="168.0" />    <vehicle id="W_E_213" type="standard_car" route="W_E" depart="168.0" />    <vehicle id="N_W_214" type="standard_car" route="N_W" depart="170.0" />    <vehicle id="E_N_215" type="standard_car" route="E_N" depart="170.0" />    <vehicle id="W_E_216" type="standard_car" route="W_E" depart="170.0" />    <vehicle id="S_N_217" type="standard_car" route="S_N" depart="170.0" />    <vehicle id="W_E_218" type="standard_car" route="W_E" depart="171.0" />    <vehicle id="N_E_219" type="standard_car" route="N_E" depart="171.0" />    <vehicle id="E_W_220" type="standard_car" route="E_W" depart="171.0" />    <vehicle id="W_E_221" type="standard_car" route="W_E" depart="171.0" />    <vehicle id="N_E_222" type="standard_car" route="N_E" depart="171.0" />    <vehicle id="W_E_223" type="standard_car" route="W_E" depart="172.0" />    <vehicle id="W_E_224" type="standard_car" route="W_E" depart="173.0" />    <vehicle id="W_E_225" type="standard_car" route="W_E" depart="174.0" />    <vehicle id="S_N_226" type="standard_car" route="S_N" depart="174.0" />    <vehicle id="E_N_227" type="standard_car" route="E_N" depart="174.0" />    <vehicle id="N_S_228" type="standard_car" route="N_S" depart="174.0" />    <vehicle id="W_E_229" type="standard_car" route="W_E" depart="175.0" />    <vehicle id="E_W_230" type="standard_car" route="E_W" depart="175.0" />    <vehicle id="W_E_231" type="standard_car" route="W_E" depart="176.0" />    <vehicle id="W_E_232" type="standard_car" route="W_E" depart="177.0" />    <vehicle id="S_W_233" type="standard_car" route="S_W" depart="177.0" />    <vehicle id="E_W_234" type="standard_car" route="E_W" depart="177.0" />    <vehicle id="W_E_235" type="standard_car" route="W_E" depart="177.0" />    <vehicle id="N_W_236" type="standard_car" route="N_W" depart="178.0" />    <vehicle id="N_S_237" type="standard_car" route="N_S" depart="178.0" />    <vehicle id="N_W_238" type="standard_car" route="N_W" depart="179.0" />    <vehicle id="E_W_239" type="standard_car" route="E_W" depart="180.0" />    <vehicle id="E_W_240" type="standard_car" route="E_W" depart="181.0" />    <vehicle id="W_E_241" type="standard_car" route="W_E" depart="181.0" />    <vehicle id="S_N_242" type="standard_car" route="S_N" depart="181.0" />    <vehicle id="N_S_243" type="standard_car" route="N_S" depart="181.0" />    <vehicle id="N_W_244" type="standard_car" route="N_W" depart="182.0" />    <vehicle id="W_N_245" type="standard_car" route="W_N" depart="183.0" />    <vehicle id="S_N_246" type="standard_car" route="S_N" depart="183.0" />    <vehicle id="E_W_247" type="standard_car" route="E_W" depart="184.0" />    <vehicle id="S_E_248" type="standard_car" route="N_E" depart="184.0" />    <vehicle id="N_S_249" type="standard_car" route="N_S" depart="184.0" />    <vehicle id="W_E_250" type="standard_car" route="W_E" depart="186.0" />    <vehicle id="S_N_251" type="standard_car" route="S_N" depart="186.0" />    <vehicle id="N_W_252" type="standard_car" route="N_W" depart="186.0" />    <vehicle id="W_E_253" type="standard_car" route="W_E" depart="187.0" />    <vehicle id="E_N_254" type="standard_car" route="E_N" depart="187.0" />    <vehicle id="S_N_255" type="standard_car" route="S_N" depart="188.0" />    <vehicle id="W_N_256" type="standard_car" route="W_N" depart="188.0" />    <vehicle id="E_N_257" type="standard_car" route="E_N" depart="188.0" />    <vehicle id="S_W_258" type="standard_car" route="S_W" depart="188.0" />    <vehicle id="N_S_259" type="standard_car" route="N_S" depart="188.0" />    <vehicle id="E_W_260" type="standard_car" route="E_W" depart="188.0" />    <vehicle id="W_E_261" type="standard_car" route="W_E" depart="189.0" />    <vehicle id="E_S_262" type="standard_car" route="E_S" depart="190.0" />    <vehicle id="S_N_263" type="standard_car" route="S_N" depart="191.0" />    <vehicle id="W_E_264" type="standard_car" route="W_E" depart="192.0" />    <vehicle id="E_N_265" type="standard_car" route="E_N" depart="192.0" />    <vehicle id="E_S_266" type="standard_car" route="E_S" depart="192.0" />    <vehicle id="W_E_267" type="standard_car" route="W_E" depart="192.0" />    <vehicle id="N_S_268" type="standard_car" route="N_S" depart="193.0" />    <vehicle id="S_W_269" type="standard_car" route="S_W" depart="193.0" />    <vehicle id="N_S_270" type="standard_car" route="N_S" depart="194.0" />    <vehicle id="E_W_271" type="standard_car" route="E_W" depart="194.0" />    <vehicle id="S_N_272" type="standard_car" route="S_N" depart="195.0" />    <vehicle id="W_E_273" type="standard_car" route="W_E" depart="196.0" />    <vehicle id="S_N_274" type="standard_car" route="S_N" depart="196.0" />    <vehicle id="N_S_275" type="standard_car" route="N_S" depart="196.0" />    <vehicle id="N_S_276" type="standard_car" route="N_S" depart="196.0" />    <vehicle id="N_S_277" type="standard_car" route="N_S" depart="197.0" />    <vehicle id="S_N_278" type="standard_car" route="S_N" depart="198.0" />    <vehicle id="E_W_279" type="standard_car" route="E_W" depart="198.0" />    <vehicle id="S_N_280" type="standard_car" route="S_N" depart="199.0" />    <vehicle id="E_N_281" type="standard_car" route="E_N" depart="199.0" />    <vehicle id="S_N_282" type="standard_car" route="S_N" depart="199.0" />    <vehicle id="E_W_283" type="standard_car" route="E_W" depart="199.0" />    <vehicle id="W_E_284" type="standard_car" route="W_E" depart="199.0" />    <vehicle id="W_N_285" type="standard_car" route="W_N" depart="200.0" />    <vehicle id="W_S_286" type="standard_car" route="W_S" depart="201.0" />    <vehicle id="S_N_287" type="standard_car" route="S_N" depart="201.0" />    <vehicle id="W_E_288" type="standard_car" route="W_E" depart="201.0" />    <vehicle id="S_N_289" type="standard_car" route="S_N" depart="202.0" />    <vehicle id="W_E_290" type="standard_car" route="W_E" depart="202.0" />    <vehicle id="N_E_291" type="standard_car" route="N_E" depart="203.0" />    <vehicle id="W_E_292" type="standard_car" route="W_E" depart="203.0" />    <vehicle id="S_N_293" type="standard_car" route="S_N" depart="203.0" />    <vehicle id="W_E_294" type="standard_car" route="W_E" depart="204.0" />    <vehicle id="E_W_295" type="standard_car" route="E_W" depart="204.0" />    <vehicle id="S_N_296" type="standard_car" route="S_N" depart="205.0" />    <vehicle id="E_N_297" type="standard_car" route="E_N" depart="205.0" />    <vehicle id="W_E_298" type="standard_car" route="W_E" depart="205.0" />    <vehicle id="S_N_299" type="standard_car" route="S_N" depart="205.0" />    <vehicle id="N_S_300" type="standard_car" route="N_S" depart="205.0" />    <vehicle id="W_S_301" type="standard_car" route="W_S" depart="205.0" />    <vehicle id="W_E_302" type="standard_car" route="W_E" depart="205.0" />    <vehicle id="E_W_303" type="standard_car" route="E_W" depart="206.0" />    <vehicle id="E_N_304" type="standard_car" route="E_N" depart="206.0" />    <vehicle id="S_N_305" type="standard_car" route="S_N" depart="207.0" />    <vehicle id="W_N_306" type="standard_car" route="W_N" depart="207.0" />    <vehicle id="S_N_307" type="standard_car" route="S_N" depart="207.0" />    <vehicle id="W_E_308" type="standard_car" route="W_E" depart="208.0" />    <vehicle id="W_N_309" type="standard_car" route="W_N" depart="208.0" />    <vehicle id="W_E_310" type="standard_car" route="W_E" depart="208.0" />    <vehicle id="E_W_311" type="standard_car" route="E_W" depart="209.0" />    <vehicle id="S_N_312" type="standard_car" route="S_N" depart="209.0" />    <vehicle id="S_N_313" type="standard_car" route="S_N" depart="209.0" />    <vehicle id="W_E_314" type="standard_car" route="W_E" depart="209.0" />    <vehicle id="W_E_315" type="standard_car" route="W_E" depart="209.0" />    <vehicle id="E_W_316" type="standard_car" route="E_W" depart="210.0" />    <vehicle id="E_W_317" type="standard_car" route="E_W" depart="211.0" />    <vehicle id="E_W_318" type="standard_car" route="E_W" depart="211.0" />    <vehicle id="E_W_319" type="standard_car" route="E_W" depart="211.0" />    <vehicle id="E_W_320" type="standard_car" route="E_W" depart="212.0" />    <vehicle id="N_S_321" type="standard_car" route="N_S" depart="212.0" />    <vehicle id="E_N_322" type="standard_car" route="E_N" depart="212.0" />    <vehicle id="N_W_323" type="standard_car" route="N_W" depart="212.0" />    <vehicle id="S_N_324" type="standard_car" route="S_N" depart="214.0" />    <vehicle id="E_N_325" type="standard_car" route="E_N" depart="214.0" />    <vehicle id="N_W_326" type="standard_car" route="N_W" depart="215.0" />    <vehicle id="S_N_327" type="standard_car" route="S_N" depart="215.0" />    <vehicle id="W_E_328" type="standard_car" route="W_E" depart="215.0" />    <vehicle id="N_S_329" type="standard_car" route="N_S" depart="215.0" />    <vehicle id="W_N_330" type="standard_car" route="W_N" depart="215.0" />    <vehicle id="S_E_331" type="standard_car" route="N_E" depart="215.0" />    <vehicle id="S_W_332" type="standard_car" route="S_W" depart="215.0" />    <vehicle id="E_W_333" type="standard_car" route="E_W" depart="216.0" />    <vehicle id="E_W_334" type="standard_car" route="E_W" depart="217.0" />    <vehicle id="W_E_335" type="standard_car" route="W_E" depart="218.0" />    <vehicle id="N_S_336" type="standard_car" route="N_S" depart="218.0" />    <vehicle id="W_E_337" type="standard_car" route="W_E" depart="218.0" />    <vehicle id="S_N_338" type="standard_car" route="S_N" depart="218.0" />    <vehicle id="W_E_339" type="standard_car" route="W_E" depart="218.0" />    <vehicle id="N_S_340" type="standard_car" route="N_S" depart="219.0" />    <vehicle id="W_E_341" type="standard_car" route="W_E" depart="219.0" />    <vehicle id="S_N_342" type="standard_car" route="S_N" depart="219.0" />    <vehicle id="N_S_343" type="standard_car" route="N_S" depart="220.0" />    <vehicle id="S_N_344" type="standard_car" route="S_N" depart="220.0" />    <vehicle id="E_W_345" type="standard_car" route="E_W" depart="220.0" />    <vehicle id="E_W_346" type="standard_car" route="E_W" depart="220.0" />    <vehicle id="S_N_347" type="standard_car" route="S_N" depart="220.0" />    <vehicle id="E_W_348" type="standard_car" route="E_W" depart="221.0" />    <vehicle id="E_S_349" type="standard_car" route="E_S" depart="221.0" />    <vehicle id="N_E_350" type="standard_car" route="N_E" depart="222.0" />    <vehicle id="E_W_351" type="standard_car" route="E_W" depart="222.0" />    <vehicle id="S_N_352" type="standard_car" route="S_N" depart="222.0" />    <vehicle id="S_N_353" type="standard_car" route="S_N" depart="222.0" />    <vehicle id="N_S_354" type="standard_car" route="N_S" depart="222.0" />    <vehicle id="N_S_355" type="standard_car" route="N_S" depart="223.0" />    <vehicle id="E_W_356" type="standard_car" route="E_W" depart="223.0" />    <vehicle id="E_W_357" type="standard_car" route="E_W" depart="223.0" />    <vehicle id="W_E_358" type="standard_car" route="W_E" depart="223.0" />    <vehicle id="E_W_359" type="standard_car" route="E_W" depart="223.0" />    <vehicle id="W_N_360" type="standard_car" route="W_N" depart="223.0" />    <vehicle id="N_S_361" type="standard_car" route="N_S" depart="223.0" />    <vehicle id="W_E_362" type="standard_car" route="W_E" depart="224.0" />    <vehicle id="E_N_363" type="standard_car" route="E_N" depart="224.0" />    <vehicle id="E_W_364" type="standard_car" route="E_W" depart="224.0" />    <vehicle id="W_E_365" type="standard_car" route="W_E" depart="224.0" />    <vehicle id="E_W_366" type="standard_car" route="E_W" depart="225.0" />    <vehicle id="S_E_367" type="standard_car" route="N_E" depart="225.0" />    <vehicle id="E_S_368" type="standard_car" route="E_S" depart="226.0" />    <vehicle id="E_W_369" type="standard_car" route="E_W" depart="226.0" />    <vehicle id="W_E_370" type="standard_car" route="W_E" depart="226.0" />    <vehicle id="E_W_371" type="standard_car" route="E_W" depart="226.0" />    <vehicle id="N_S_372" type="standard_car" route="N_S" depart="227.0" />    <vehicle id="S_N_373" type="standard_car" route="S_N" depart="227.0" />    <vehicle id="W_E_374" type="standard_car" route="W_E" depart="228.0" />    <vehicle id="E_N_375" type="standard_car" route="E_N" depart="228.0" />    <vehicle id="N_S_376" type="standard_car" route="N_S" depart="228.0" />    <vehicle id="N_W_377" type="standard_car" route="N_W" depart="228.0" />    <vehicle id="S_N_378" type="standard_car" route="S_N" depart="229.0" />    <vehicle id="N_S_379" type="standard_car" route="N_S" depart="229.0" />    <vehicle id="E_W_380" type="standard_car" route="E_W" depart="230.0" />    <vehicle id="N_E_381" type="standard_car" route="N_E" depart="230.0" />    <vehicle id="S_N_382" type="standard_car" route="S_N" depart="230.0" />    <vehicle id="E_W_383" type="standard_car" route="E_W" depart="230.0" />    <vehicle id="N_S_384" type="standard_car" route="N_S" depart="232.0" />    <vehicle id="S_W_385" type="standard_car" route="S_W" depart="232.0" />    <vehicle id="S_N_386" type="standard_car" route="S_N" depart="232.0" />    <vehicle id="N_S_387" type="standard_car" route="N_S" depart="232.0" />    <vehicle id="E_W_388" type="standard_car" route="E_W" depart="233.0" />    <vehicle id="W_E_389" type="standard_car" route="W_E" depart="233.0" />    <vehicle id="N_S_390" type="standard_car" route="N_S" depart="233.0" />    <vehicle id="S_W_391" type="standard_car" route="S_W" depart="233.0" />    <vehicle id="S_N_392" type="standard_car" route="S_N" depart="234.0" />    <vehicle id="W_N_393" type="standard_car" route="W_N" depart="234.0" />    <vehicle id="W_E_394" type="sta