<routes>
    <vType accel="1.0" decel="4.5" id="standard_car" length="5.0" minGap="2.5" maxSpeed="25" sigma="0.5" />

    <route id="W_N" edges="W2TL TL2N"/>
    <route id="W_E" edges="W2TL TL2E"/>
    <route id="W_S" edges="W2TL TL2S"/>
    <route id="N_W" edges="N2TL TL2W"/>
    <route id="N_E" edges="N2TL TL2E"/>
    <route id="N_S" edges="N2TL TL2S"/>
    <route id="E_W" edges="E2TL TL2W"/>
    <route id="E_N" edges="E2TL TL2N"/>
    <route id="E_S" edges="E2TL TL2S"/>
    <route id="S_W" edges="S2TL TL2W"/>
    <route id="S_N" edges="S2TL TL2N"/>
    <route id="S_E" edges="S2TL TL2E"/>    <vehicle id="W_E_0" type="standard_car" route="W_E" depart="4.0" />    <vehicle id="E_W_1" type="standard_car" route="E_W" depart="4.0" />    <vehicle id="E_W_2" type="standard_car" route="E_W" depart="8.0" />    <vehicle id="W_N_3" type="standard_car" route="W_N" depart="10.0" />    <vehicle id="E_W_4" type="standard_car" route="E_W" depart="30.0" />    <vehicle id="E_W_5" type="standard_car" route="E_W" depart="33.0" />    <vehicle id="E_W_6" type="standard_car" route="E_W" depart="37.0" />    <vehicle id="W_E_7" type="standard_car" route="W_E" depart="50.0" />    <vehicle id="W_E_8" type="standard_car" route="W_E" depart="55.0" />    <vehicle id="E_S_9" type="standard_car" route="E_S" depart="56.0" />    <vehicle id="E_W_10" type="standard_car" route="E_W" depart="58.0" />    <vehicle id="W_E_11" type="standard_car" route="W_E" depart="58.0" />    <vehicle id="W_N_12" type="standard_car" route="W_N" depart="59.0" />    <vehicle id="E_N_13" type="standard_car" route="E_N" depart="61.0" />    <vehicle id="W_E_14" type="standard_car" route="W_E" depart="61.0" />    <vehicle id="W_E_15" type="standard_car" route="W_E" depart="73.0" />    <vehicle id="W_E_16" type="standard_car" route="W_E" depart="74.0" />    <vehicle id="S_N_17" type="standard_car" route="S_N" depart="74.0" />    <vehicle id="W_S_18" type="standard_car" route="W_S" depart="76.0" />    <vehicle id="W_E_19" type="standard_car" route="W_E" depart="79.0" />    <vehicle id="E_N_20" type="standard_car" route="E_N" depart="80.0" />    <vehicle id="W_E_21" type="standard_car" route="W_E" depart="82.0" />    <vehicle id="E_W_22" type="standard_car" route="E_W" depart="83.0" />    <vehicle id="E_S_23" type="standard_car" route="E_S" depart="85.0" />    <vehicle id="E_W_24" type="standard_car" route="E_W" depart="86.0" />    <vehicle id="W_N_25" type="standard_car" route="W_N" depart="87.0" />    <vehicle id="W_E_26" type="standard_car" route="W_E" depart="90.0" />    <vehicle id="W_E_27" type="standard_car" route="W_E" depart="91.0" />    <vehicle id="W_E_28" type="standard_car" route="W_E" depart="93.0" />    <vehicle id="N_S_29" type="standard_car" route="N_S" depart="97.0" />    <vehicle id="W_E_30" type="standard_car" route="W_E" depart="98.0" />    <vehicle id="E_W_31" type="standard_car" route="E_W" depart="103.0" />    <vehicle id="W_E_32" type="standard_car" route="W_E" depart="107.0" />    <vehicle id="W_N_33" type="standard_car" route="W_N" depart="107.0" />    <vehicle id="W_E_34" type="standard_car" route="W_E" depart="110.0" />    <vehicle id="N_S_35" type="standard_car" route="N_S" depart="111.0" />    <vehicle id="W_E_36" type="standard_car" route="W_E" depart="113.0" />    <vehicle id="W_E_37" type="standard_car" route="W_E" depart="114.0" />    <vehicle id="W_E_38" type="standard_car" route="W_E" depart="114.0" />    <vehicle id="E_N_39" type="standard_car" route="E_N" depart="116.0" />    <vehicle id="W_N_40" type="standard_car" route="W_N" depart="116.0" />    <vehicle id="W_E_41" type="standard_car" route="W_E" depart="116.0" />    <vehicle id="E_S_42" type="standard_car" route="E_S" depart="122.0" />    <vehicle id="W_E_43" type="standard_car" route="W_E" depart="122.0" />    <vehicle id="W_E_44" type="standard_car" route="W_E" depart="124.0" />    <vehicle id="W_E_45" type="standard_car" route="W_E" depart="127.0" />    <vehicle id="W_S_46" type="standard_car" route="W_S" depart="127.0" />    <vehicle id="E_W_47" type="standard_car" route="E_W" depart="128.0" />    <vehicle id="E_W_48" type="standard_car" route="E_W" depart="128.0" />    <vehicle id="W_S_49" type="standard_car" route="W_S" depart="129.0" />    <vehicle id="E_W_50" type="standard_car" route="E_W" depart="130.0" />    <vehicle id="E_W_51" type="standard_car" route="E_W" depart="131.0" />    <vehicle id="E_W_52" type="standard_car" route="E_W" depart="132.0" />    <vehicle id="N_S_53" type="standard_car" route="N_S" depart="132.0" />    <vehicle id="E_W_54" type="standard_car" route="E_W" depart="135.0" />    <vehicle id="E_W_55" type="standard_car" route="E_W" depart="136.0" />    <vehicle id="W_E_56" type="standard_car" route="W_E" depart="137.0" />    <vehicle id="W_E_57" type="standard_car" route="W_E" depart="138.0" />    <vehicle id="W_E_58" type="standard_car" route="W_E" depart="138.0" />    <vehicle id="W_E_59" type="standard_car" route="W_E" depart="139.0" />    <vehicle id="E_N_60" type="standard_car" route="E_N" depart="139.0" />    <vehicle id="N_E_61" type="standard_car" route="N_E" depart="140.0" />    <vehicle id="W_E_62" type="standard_car" route="W_E" depart="141.0" />    <vehicle id="W_E_63" type="standard_car" route="W_E" depart="143.0" />    <vehicle id="W_E_64" type="standard_car" route="W_E" depart="144.0" />    <vehicle id="E_W_65" type="standard_car" route="E_W" depart="145.0" />    <vehicle id="E_W_66" type="standard_car" route="E_W" depart="145.0" />    <vehicle id="W_E_67" type="standard_car" route="W_E" depart="146.0" />    <vehicle id="N_S_68" type="standard_car" route="N_S" depart="147.0" />    <vehicle id="E_W_69" type="standard_car" route="E_W" depart="147.0" />    <vehicle id="E_S_70" type="standard_car" route="E_S" depart="147.0" />    <vehicle id="W_E_71" type="standard_car" route="W_E" depart="148.0" />    <vehicle id="E_W_72" type="standard_car" route="E_W" depart="150.0" />    <vehicle id="W_E_73" type="standard_car" route="W_E" depart="150.0" />    <vehicle id="E_W_74" type="standard_car" route="E_W" depart="151.0" />    <vehicle id="E_W_75" type="standard_car" route="E_W" depart="152.0" />    <vehicle id="W_E_76" type="standard_car" route="W_E" depart="152.0" />    <vehicle id="E_W_77" type="standard_car" route="E_W" depart="153.0" />    <vehicle id="E_W_78" type="standard_car" route="E_W" depart="155.0" />    <vehicle id="E_N_79" type="standard_car" route="E_N" depart="156.0" />    <vehicle id="W_S_80" type="standard_car" route="W_S" depart="158.0" />    <vehicle id="W_E_81" type="standard_car" route="W_E" depart="159.0" />    <vehicle id="E_W_82" type="standard_car" route="E_W" depart="160.0" />    <vehicle id="W_E_83" type="standard_car" route="W_E" depart="161.0" />    <vehicle id="E_W_84" type="standard_car" route="E_W" depart="161.0" />    <vehicle id="E_W_85" type="standard_car" route="E_W" depart="162.0" />    <vehicle id="E_W_86" type="standard_car" route="E_W" depart="163.0" />    <vehicle id="N_S_87" type="standard_car" route="N_S" depart="163.0" />    <vehicle id="E_W_88" type="standard_car" route="E_W" depart="164.0" />    <vehicle id="E_W_89" type="standard_car" route="E_W" depart="168.0" />    <vehicle id="E_W_90" type="standard_car" route="E_W" depart="170.0" />    <vehicle id="E_W_91" type="standard_car" route="E_W" depart="171.0" />    <vehicle id="W_S_92" type="standard_car" route="W_S" depart="172.0" />    <vehicle id="W_S_93" type="standard_car" route="W_S" depart="173.0" />    <vehicle id="E_W_94" type="standard_car" route="E_W" depart="174.0" />    <vehicle id="W_E_95" type="standard_car" route="W_E" depart="175.0" />    <vehicle id="W_E_96" type="standard_car" route="W_E" depart="175.0" />    <vehicle id="W_E_97" type="standard_car" route="W_E" depart="176.0" />    <vehicle id="E_W_98" type="standard_car" route="E_W" depart="177.0" />    <vehicle id="E_W_99" type="standard_car" route="E_W" depart="177.0" />    <vehicle id="S_W_100" type="standard_car" route="S_W" depart="178.0" />    <vehicle id="E_W_101" type="standard_car" route="E_W" depart="178.0" />    <vehicle id="W_E_102" type="standard_car" route="W_E" depart="178.0" />    <vehicle id="E_N_103" type="standard_car" route="E_N" depart="180.0" />    <vehicle id="E_W_104" type="standard_car" route="E_W" depart="181.0" />    <vehicle id="W_N_105" type="standard_car" route="W_N" depart="181.0" />    <vehicle id="E_W_106" type="standard_car" route="E_W" depart="182.0" />    <vehicle id="E_W_107" type="standard_car" route="E_W" depart="182.0" />    <vehicle id="E_W_108" type="standard_car" route="E_W" depart="182.0" />    <vehicle id="E_W_109" type="standard_car" route="E_W" depart="183.0" />    <vehicle id="W_E_110" type="standard_car" route="W_E" depart="185.0" />    <vehicle id="E_W_111" type="standard_car" route="E_W" depart="186.0" />    <vehicle id="E_W_112" type="standard_car" route="E_W" depart="186.0" />    <vehicle id="E_W_113" type="standard_car" route="E_W" depart="186.0" />    <vehicle id="E_W_114" type="standard_car" route="E_W" depart="187.0" />    <vehicle id="W_N_115" type="standard_car" route="W_N" depart="187.0" />    <vehicle id="E_W_116" type="standard_car" route="E_W" depart="188.0" />    <vehicle id="E_W_117" type="standard_car" route="E_W" depart="188.0" />    <vehicle id="E_W_118" type="standard_car" route="E_W" depart="189.0" />    <vehicle id="N_S_119" type="standard_car" route="N_S" depart="190.0" />    <vehicle id="W_E_120" type="standard_car" route="W_E" depart="190.0" />    <vehicle id="N_E_121" type="standard_car" route="N_E" depart="190.0" />    <vehicle id="W_E_122" type="standard_car" route="W_E" depart="193.0" />    <vehicle id="W_E_123" type="standard_car" route="W_E" depart="193.0" />    <vehicle id="E_W_124" type="standard_car" route="E_W" depart="193.0" />    <vehicle id="W_S_125" type="standard_car" route="W_S" depart="195.0" />    <vehicle id="E_W_126" type="standard_car" route="E_W" depart="195.0" />    <vehicle id="W_E_127" type="standard_car" route="W_E" depart="195.0" />    <vehicle id="W_N_128" type="standard_car" route="W_N" depart="197.0" />    <vehicle id="S_N_129" type="standard_car" route="S_N" depart="197.0" />    <vehicle id="W_N_130" type="standard_car" route="W_N" depart="197.0" />    <vehicle id="S_W_131" type="standard_car" route="S_W" depart="198.0" />    <vehicle id="E_W_132" type="standard_car" route="E_W" depart="200.0" />    <vehicle id="E_W_133" type="standard_car" route="E_W" depart="200.0" />    <vehicle id="W_E_134" type="standard_car" route="W_E" depart="201.0" />    <vehicle id="E_W_135" type="standard_car" route="E_W" depart="201.0" />    <vehicle id="E_S_136" type="standard_car" route="E_S" depart="202.0" />    <vehicle id="N_S_137" type="standard_car" route="N_S" depart="202.0" />    <vehicle id="E_W_138" type="standard_car" route="E_W" depart="202.0" />    <vehicle id="E_W_139" type="standard_car" route="E_W" depart="203.0" />    <vehicle id="E_N_140" type="standard_car" route="E_N" depart="203.0" />    <vehicle id="E_W_141" type="standard_car" route="E_W" depart="204.0" />    <vehicle id="E_W_142" type="standard_car" route="E_W" depart="205.0" />    <vehicle id="E_N_143" type="standard_car" route="E_N" depart="206.0" />    <vehicle id="E_W_144" type="standard_car" route="E_W" depart="207.0" />    <vehicle id="W_N_145" type="standard_car" route="W_N" depart="208.0" />    <vehicle id="S_N_146" type="standard_car" route="S_N" depart="208.0" />    <vehicle id="E_S_147" type="standard_car" route="E_S" depart="208.0" />    <vehicle id="E_S_148" type="standard_car" route="E_S" depart="208.0" />    <vehicle id="W_E_149" type="standard_car" route="W_E" depart="209.0" />    <vehicle id="E_W_150" type="standard_car" route="E_W" depart="209.0" />    <vehicle id="E_S_151" type="standard_car" route="E_S" depart="209.0" />    <vehicle id="S_N_152" type="standard_car" route="S_N" depart="209.0" />    <vehicle id="N_S_153" type="standard_car" route="N_S" depart="211.0" />    <vehicle id="E_S_154" type="standard_car" route="E_S" depart="211.0" />    <vehicle id="W_E_155" type="standard_car" route="W_E" depart="211.0" />    <vehicle id="E_W_156" type="standard_car" route="E_W" depart="212.0" />    <vehicle id="W_E_157" type="standard_car" route="W_E" depart="213.0" />    <vehicle id="E_W_158" type="standard_car" route="E_W" depart="213.0" />    <vehicle id="E_S_159" type="standard_car" route="E_S" depart="214.0" />    <vehicle id="W_E_160" type="standard_car" route="W_E" depart="216.0" />    <vehicle id="W_E_161" type="standard_car" route="W_E" depart="219.0" />    <vehicle id="W_E_162" type="standard_car" route="W_E" depart="219.0" />    <vehicle id="E_N_163" type="standard_car" route="E_N" depart="219.0" />    <vehicle id="E_N_164" type="standard_car" route="E_N" depart="219.0" />    <vehicle id="W_S_165" type="standard_car" route="W_S" depart="221.0" />    <vehicle id="W_N_166" type="standard_car" route="W_N" depart="221.0" />    <vehicle id="S_E_167" type="standard_car" route="N_E" depart="221.0" />    <vehicle id="E_W_168" type="standard_car" route="E_W" depart="223.0" />    <vehicle id="W_E_169" type="standard_car" route="W_E" depart="223.0" />    <vehicle id="W_E_170" type="standard_car" route="W_E" depart="225.0" />    <vehicle id="W_E_171" type="standard_car" route="W_E" depart="225.0" />    <vehicle id="N_E_172" type="standard_car" route="N_E" depart="226.0" />    <vehicle id="W_E_173" type="standard_car" route="W_E" depart="227.0" />    <vehicle id="S_E_174" type="standard_car" route="N_E" depart="227.0" />    <vehicle id="W_E_175" type="standard_car" route="W_E" depart="228.0" />    <vehicle id="E_S_176" type="standard_car" route="E_S" depart="230.0" />    <vehicle id="W_N_177" type="standard_car" route="W_N" depart="231.0" />    <vehicle id="W_E_178" type="standard_car" route="W_E" depart="231.0" />    <vehicle id="W_E_179" type="standard_car" route="W_E" depart="232.0" />    <vehicle id="E_S_180" type="standard_car" route="E_S" depart="232.0" />    <vehicle id="W_E_181" type="standard_car" route="W_E" depart="234.0" />    <vehicle id="W_E_182" type="standard_car" route="W_E" depart="235.0" />    <vehicle id="N_S_183" type="standard_car" route="N_S" depart="235.0" />    <vehicle id="E_W_184" type="standard_car" route="E_W" depart="235.0" />    <vehicle id="E_W_185" type="standard_car" route="E_W" depart="236.0" />    <vehicle id="E_W_186" type="standard_car" route="E_W" depart="236.0" />    <vehicle id="W_E_187" type="standard_car" route="W_E" depart="237.0" />    <vehicle id="E_W_188" type="standard_car" route="E_W" depart="239.0" />    <vehicle id="W_E_189" type="standard_car" route="W_E" depart="240.0" />    <vehicle id="E_W_190" type="standard_car" route="E_W" depart="240.0" />    <vehicle id="E_W_191" type="standard_car" route="E_W" depart="241.0" />    <vehicle id="E_N_192" type="standard_car" route="E_N" depart="242.0" />    <vehicle id="W_E_193" type="standard_car" route="W_E" depart="242.0" />    <vehicle id="S_W_194" type="standard_car" route="S_W" depart="243.0" />    <vehicle id="W_E_195" type="standard_car" route="W_E" depart="243.0" />    <vehicle id="W_E_196" type="standard_car" route="W_E" depart="244.0" />    <vehicle id="S_N_197" type="standard_car" route="S_N" depart="245.0" />    <vehicle id="W_E_198" type="standard_car" route="W_E" depart="245.0" />    <vehicle id="N_S_199" type="standard_car" route="N_S" depart="247.0" />    <vehicle id="E_W_200" type="standard_car" route="E_W" depart="247.0" />    <vehicle id="E_W_201" type="standard_car" route="E_W" depart="247.0" />    <vehicle id="S_N_202" type="standard_car" route="S_N" depart="248.0" />    <vehicle id="S_N_203" type="standard_car" route="S_N" depart="250.0" />    <vehicle id="E_W_204" type="standard_car" route="E_W" depart="251.0" />    <vehicle id="E_S_205" type="standard_car" route="E_S" depart="251.0" />    <vehicle id="W_E_206" type="standard_car" route="W_E" depart="251.0" />    <vehicle id="E_N_207" type="standard_car" route="E_N" depart="251.0" />    <vehicle id="N_S_208" type="standard_car" route="N_S" depart="252.0" />    <vehicle id="E_N_209" type="standard_car" route="E_N" depart="252.0" />    <vehicle id="W_E_210" type="standard_car" route="W_E" depart="253.0" />    <vehicle id="W_S_211" type="standard_car" route="W_S" depart="254.0" />    <vehicle id="S_N_212" type="standard_car" route="S_N" depart="254.0" />    <vehicle id="S_W_213" type="standard_car" route="S_W" depart="254.0" />    <vehicle id="E_W_214" type="standard_car" route="E_W" depart="254.0" />    <vehicle id="W_N_215" type="standard_car" route="W_N" depart="254.0" />    <vehicle id="W_E_216" type="standard_car" route="W_E" depart="254.0" />    <vehicle id="W_E_217" type="standard_car" route="W_E" depart="254.0" />    <vehicle id="N_S_218" type="standard_car" route="N_S" depart="255.0" />    <vehicle id="E_N_219" type="standard_car" route="E_N" depart="255.0" />    <vehicle id="E_N_220" type="standard_car" route="E_N" depart="256.0" />    <vehicle id="W_E_221" type="standard_car" route="W_E" depart="256.0" />    <vehicle id="E_W_222" type="standard_car" route="E_W" depart="257.0" />    <vehicle id="E_W_223" type="standard_car" route="E_W" depart="257.0" />    <vehicle id="S_E_224" type="standard_car" route="N_E" depart="257.0" />    <vehicle id="W_E_225" type="standard_car" route="W_E" depart="258.0" />    <vehicle id="N_S_226" type="standard_car" route="N_S" depart="258.0" />    <vehicle id="E_W_227" type="standard_car" route="E_W" depart="259.0" />    <vehicle id="S_E_228" type="standard_car" route="N_E" depart="259.0" />    <vehicle id="E_N_229" type="standard_car" route="E_N" depart="260.0" />    <vehicle id="W_E_230" type="standard_car" route="W_E" depart="262.0" />    <vehicle id="W_E_231" type="standard_car" route="W_E" depart="262.0" />    <vehicle id="E_S_232" type="standard_car" route="E_S" depart="264.0" />    <vehicle id="E_W_233" type="standard_car" route="E_W" depart="264.0" />    <vehicle id="E_W_234" type="standard_car" route="E_W" depart="265.0" />    <vehicle id="E_W_235" type="standard_car" route="E_W" depart="265.0" />    <vehicle id="E_W_236" type="standard_car" route="E_W" depart="265.0" />    <vehicle id="W_E_237" type="standard_car" route="W_E" depart="265.0" />    <vehicle id="E_S_238" type="standard_car" route="E_S" depart="266.0" />    <vehicle id="E_W_239" type="standard_car" route="E_W" depart="266.0" />    <vehicle id="E_W_240" type="standard_car" route="E_W" depart="269.0" />    <vehicle id="W_E_241" type="standard_car" route="W_E" depart="269.0" />    <vehicle id="E_W_242" type="standard_car" route="E_W" depart="270.0" />    <vehicle id="E_S_243" type="standard_car" route="E_S" depart="270.0" />    <vehicle id="E_S_244" type="standard_car" route="E_S" depart="271.0" />    <vehicle id="E_S_245" type="standard_car" route="E_S" depart="271.0" />    <vehicle id="E_W_246" type="standard_car" route="E_W" depart="272.0" />    <vehicle id="E_W_247" type="standard_car" route="E_W" depart="272.0" />    <vehicle id="W_E_248" type="standard_car" route="W_E" depart="272.0" />    <vehicle id="W_E_249" type="standard_car" route="W_E" depart="274.0" />    <vehicle id="E_W_250" type="standard_car" route="E_W" depart="275.0" />    <vehicle id="W_N_251" type="standard_car" route="W_N" depart="275.0" />    <vehicle id="W_E_252" type="standard_car" route="W_E" depart="276.0" />    <vehicle id="E_S_253" type="standard_car" route="E_S" depart="276.0" />    <vehicle id="S_E_254" type="standard_car" route="N_E" depart="276.0" />    <vehicle id="W_E_255" type="standard_car" route="W_E" depart="280.0" />    <vehicle id="S_W_256" type="standard_car" route="S_W" depart="280.0" />    <vehicle id="E_W_257" type="standard_car" route="E_W" depart="281.0" />    <vehicle id="W_E_258" type="standard_car" route="W_E" depart="282.0" />    <vehicle id="W_E_259" type="standard_car" route="W_E" depart="282.0" />    <vehicle id="E_W_260" type="standard_car" route="E_W" depart="283.0" />    <vehicle id="E_W_261" type="standard_car" route="E_W" depart="283.0" />    <vehicle id="E_N_262" type="standard_car" route="E_N" depart="284.0" />    <vehicle id="W_E_263" type="standard_car" route="W_E" depart="284.0" />    <vehicle id="W_E_264" type="standard_car" route="W_E" depart="284.0" />    <vehicle id="W_E_265" type="standard_car" route="W_E" depart="284.0" />    <vehicle id="E_S_266" type="standard_car" route="E_S" depart="284.0" />    <vehicle id="W_E_267" type="standard_car" route="W_E" depart="285.0" />    <vehicle id="W_E_268" type="standard_car" route="W_E" depart="285.0" />    <vehicle id="W_E_269" type="standard_car" route="W_E" depart="285.0" />    <vehicle id="W_E_270" type="standard_car" route="W_E" depart="286.0" />    <vehicle id="W_E_271" type="standard_car" route="W_E" depart="286.0" />    <vehicle id="E_N_272" type="standard_car" route="E_N" depart="287.0" />    <vehicle id="E_S_273" type="standard_car" route="E_S" depart="288.0" />    <vehicle id="E_W_274" type="standard_car" route="E_W" depart="288.0" />    <vehicle id="W_E_275" type="standard_car" route="W_E" depart="289.0" />    <vehicle id="E_W_276" type="standard_car" route="E_W" depart="290.0" />    <vehicle id="E_W_277" type="standard_car" route="E_W" depart="290.0" />    <vehicle id="E_S_278" type="standard_car" route="E_S" depart="290.0" />    <vehicle id="W_S_279" type="standard_car" route="W_S" depart="291.0" />    <vehicle id="E_W_280" type="standard_car" route="E_W" depart="291.0" />    <vehicle id="W_E_281" type="standard_car" route="W_E" depart="291.0" />    <vehicle id="W_E_282" type="standard_car" route="W_E" depart="292.0" />    <vehicle id="E_S_283" type="standard_car" route="E_S" depart="292.0" />    <vehicle id="W_E_284" type="standard_car" route="W_E" depart="293.0" />    <vehicle id="W_E_285" type="standard_car" route="W_E" depart="294.0" />    <vehicle id="W_E_286" type="standard_car" route="W_E" depart="294.0" />    <vehicle id="W_E_287" type="standard_car" route="W_E" depart="294.0" />    <vehicle id="W_S_288" type="standard_car" route="W_S" depart="295.0" />    <vehicle id="W_E_289" type="standard_car" route="W_E" depart="295.0" />    <vehicle id="W_E_290" type="standard_car" route="W_E" depart="296.0" />    <vehicle id="W_E_291" type="standard_car" route="W_E" depart="297.0" />    <vehicle id="E_N_292" type="standard_car" route="E_N" depart="298.0" />    <vehicle id="W_N_293" type="standard_car" route="W_N" depart="298.0" />    <vehicle id="W_E_294" type="standard_car" route="W_E" depart="299.0" />    <vehicle id="W_S_295" type="standard_car" route="W_S" depart="299.0" />    <vehicle id="N_S_296" type="standard_car" route="N_S" depart="300.0" />    <vehicle id="W_E_297" type="standard_car" route="W_E" depart="300.0" />    <vehicle id="W_N_298" type="standard_car" route="W_N" depart="301.0" />    <vehicle id="S_N_299" type="standard_car" route="S_N" depart="301.0" />    <vehicle id="E_W_300" type="standard_car" route="E_W" depart="301.0" />    <vehicle id="E_W_301" type="standard_car" route="E_W" depart="301.0" />    <vehicle id="W_E_302" type="standard_car" route="W_E" depart="301.0" />    <vehicle id="E_W_303" type="standard_car" route="E_W" depart="302.0" />    <vehicle id="W_E_304" type="standard_car" route="W_E" depart="303.0" />    <vehicle id="W_E_305" type="standard_car" route="W_E" depart="304.0" />    <vehicle id="E_W_306" type="standard_car" route="E_W" depart="305.0" />    <vehicle id="E_S_307" type="standard_car" route="E_S" depart="305.0" />    <vehicle id="W_E_308" type="standard_car" route="W_E" depart="306.0" />    <vehicle id="W_E_309" type="standard_car" route="W_E" depart="306.0" />    <vehicle id="E_W_310" type="standard_car" route="E_W" depart="306.0" />    <vehicle id="E_S_311" type="standard_car" route="E_S" depart="307.0" />    <vehicle id="W_E_312" type="standard_car" route="W_E" depart="308.0" />    <vehicle id="W_E_313" type="standard_car" route="W_E" depart="309.0" />    <vehicle id="W_S_314" type="standard_car" route="W_S" depart="309.0" />    <vehicle id="W_E_315" type="standard_car" route="W_E" depart="309.0" />    <vehicle id="S_N_316" type="standard_car" route="S_N" depart="309.0" />    <vehicle id="W_E_317" type="standard_car" route="W_E" depart="310.0" />    <vehicle id="W_E_318" type="standard_car" route="W_E" depart="310.0" />    <vehicle id="E_W_319" type="standard_car" route="E_W" depart="311.0" />    <vehicle id="E_N_320" type="standard_car" route="E_N" depart="311.0" />    <vehicle id="E_W_321" type="standard_car" route="E_W" depart="311.0" />    <vehicle id="S_N_322" type="standard_car" route="S_N" depart="312.0" />    <vehicle id="W_N_323" type="standard_car" route="W_N" depart="312.0" />    <vehicle id="E_W_324" type="standard_car" route="E_W" depart="313.0" />    <vehicle id="W_E_325" type="standard_car" route="W_E" depart="313.0" />    <vehicle id="W_S_326" type="standard_car" route="W_S" depart="314.0" />    <vehicle id="N_S_327" type="standard_car" route="N_S" depart="315.0" />    <vehicle id="E_W_328" type="standard_car" route="E_W" depart="316.0" />    <vehicle id="E_N_329" type="standard_car" route="E_N" depart="316.0" />    <vehicle id="W_E_330" type="standard_car" route="W_E" depart="318.0" />    <vehicle id="W_N_331" type="standard_car" route="W_N" depart="320.0" />    <vehicle id="W_E_332" type="standard_car" route="W_E" depart="321.0" />    <vehicle id="W_E_333" type="standard_car" route="W_E" depart="322.0" />    <vehicle id="E_W_334" type="standard_car" route="E_W" depart="323.0" />    <vehicle id="W_E_335" type="standard_car" route="W_E" depart="323.0" />    <vehicle id="W_N_336" type="standard_car" route="W_N" depart="324.0" />    <vehicle id="W_E_337" type="standard_car" route="W_E" depart="324.0" />    <vehicle id="E_W_338" type="standard_car" route="E_W" depart="324.0" />    <vehicle id="W_E_339" type="standard_car" route="W_E" depart="324.0" />    <vehicle id="E_W_340" type="standard_car" route="E_W" depart="326.0" />    <vehicle id="W_N_341" type="standard_car" route="W_N" depart="326.0" />    <vehicle id="W_E_342" type="standard_car" route="W_E" depart="326.0" />    <vehicle id="E_W_343" type="standard_car" route="E_W" depart="326.0" />    <vehicle id="E_W_344" type="standard_car" route="E_W" depart="328.0" />    <vehicle id="E_W_345" type="standard_car" route="E_W" depart="328.0" />    <vehicle id="W_S_346" type="standard_car" route="W_S" depart="329.0" />    <vehicle id="E_W_347" type="standard_car" route="E_W" depart="329.0" />    <vehicle id="W_S_348" type="standard_car" route="W_S" depart="330.0" />    <vehicle id="E_N_349" type="standard_car" route="E_N" depart="330.0" />    <vehicle id="W_E_350" type="standard_car" route="W_E" depart="330.0" />    <vehicle id="W_E_351" type="standard_car" route="W_E" depart="331.0" />    <vehicle id="S_N_352" type="standard_car" route="S_N" depart="331.0" />    <vehicle id="W_E_353" type="standard_car" route="W_E" depart="331.0" />    <vehicle id="W_S_354" type="standard_car" route="W_S" depart="332.0" />    <vehicle id="W_E_355" type="standard_car" route="W_E" depart="332.0" />    <vehicle id="W_S_356" type="standard_car" route="W_S" depart="332.0" />    <vehicle id="W_E_357" type="standard_car" route="W_E" depart="333.0" />    <vehicle id="E_W_358" type="standard_car" route="E_W" depart="333.0" />    <vehicle id="E_W_359" type="standard_car" route="E_W" depart="335.0" />    <vehicle id="W_E_360" type="standard_car" route="W_E" depart="336.0" />    <vehicle id="W_N_361" type="standard_car" route="W_N" depart="336.0" />    <vehicle id="E_N_362" type="standard_car" route="E_N" depart="337.0" />    <vehicle id="E_W_363" type="standard_car" route="E_W" depart="337.0" />    <vehicle id="W_E_364" type="standard_car" route="W_E" depart="338.0" />    <vehicle id="S_E_365" type="standard_car" route="N_E" depart="339.0" />    <vehicle id="W_E_366" type="standard_car" route="W_E" depart="339.0" />    <vehicle id="S_N_367" type="standard_car" route="S_N" depart="339.0" />    <vehicle id="E_W_368" type="standard_car" route="E_W" depart="339.0" />    <vehicle id="E_W_369" type="standard_car" route="E_W" depart="340.0" />    <vehicle id="W_E_370" type="standard_car" route="W_E" depart="340.0" />    <vehicle id="W_E_371" type="standard_car" route="W_E" depart="340.0" />    <vehicle id="E_W_372" type="standard_car" route="E_W" depart="341.0" />    <vehicle id="W_E_373" type="standard_car" route="W_E" depart="341.0" />    <vehicle id="E_W_374" type="standard_car" route="E_W" depart="341.0" />    <vehicle id="W_E_375" type="standard_car" route="W_E" depart="341.0" />    <vehicle id="E_W_376" type="standard_car" route="E_W" depart="342.0" />    <vehicle id="W_E_377" type="standard_car" route="W_E" depart="342.0" />    <vehicle id="N_E_378" type="standard_car" route="N_E" depart="342.0" />    <vehicle id="W_E_379" type="standard_car" route="W_E" depart="343.0" />    <vehicle id="E_W_380" type="standard_car" route="E_W" depart="343.0" />    <vehicle id="W_E_381" type="standard_car" route="W_E" depart="343.0" />    <vehicle id="W_E_382" type="standard_car" route="W_E" depart="343.0" />    <vehicle id="E_W_383" type="standard_car" route="E_W" depart="344.0" />    <vehicle id="E_W_384" type="standard_car" route="E_W" depart="346.0" />    <vehicle id="E_W_385" type="standard_car" route="E_W" depart="348.0" />    <vehicle id="N_S_386" type="standard_car" route="N_S" depart="348.0" />    <vehicle id="E_W_387" type="standard_car" route="E_W" depart="348.0" />    <vehicle id="E_S_388" type="standard_car" route="E_S" depart="349.0" />    <vehicle id="E_N_389" type="standard_car" route="E_N" depart="350.0" />    <vehicle id="W_E_390" type="standard_car" route="W_E" depart="350.0" />    <vehicle id="W_E_391" type="standard_car" route="W_E" depart="350.0" />    <vehicle id="W_E_392" type="standard_car" route="W_E" depart="353.0" />    <vehicle id="E_W_393" type="standard_car" route="E_W" depart="353.0"