<routes>
        <vType accel="1.0" decel="4.5" id="standard_car" length="5.0" minGap="2.5" maxSpeed="25" sigma="0.5" />

        <route id="W_N" edges="W2TL TL2N"/>
        <route id="W_E" edges="W2TL TL2E"/>
        <route id="W_S" edges="W2TL TL2S"/>
        <route id="N_W" edges="N2TL TL2W"/>
        <route id="N_E" edges="N2TL TL2E"/>
        <route id="N_S" edges="N2TL TL2S"/>
        <route id="E_W" edges="E2TL TL2W"/>
        <route id="E_N" edges="E2TL TL2N"/>
        <route id="E_S" edges="E2TL TL2S"/>
        <route id="S_W" edges="S2TL TL2W"/>
        <route id="S_N" edges="S2TL TL2N"/>
        <route id="S_E" edges="S2TL TL2E"/>
    <vehicle id="N_W_0" type="standard_car" route="N_W" depart="0.0" />
    <vehicle id="W_N_1" type="standard_car" route="W_N" depart="0.0" />
    <vehicle id="E_W_2" type="standard_car" route="E_W" depart="0.0" />
    <vehicle id="E_W_3" type="standard_car" route="E_W" depart="0.0" />
    <vehicle id="S_E_4" type="standard_car" route="N_E" depart="0.0" />
    <vehicle id="E_S_5" type="standard_car" route="E_S" depart="0.0" />
    <vehicle id="E_S_6" type="standard_car" route="E_S" depart="0.0" />
    <vehicle id="E_W_7" type="standard_car" route="E_W" depart="0.0" />
    <vehicle id="S_E_8" type="standard_car" route="N_E" depart="0.0" />
    <vehicle id="E_N_9" type="standard_car" route="E_N" depart="0.0" />
    <vehicle id="E_W_10" type="standard_car" route="E_W" depart="0.0" />
    <vehicle id="E_N_11" type="standard_car" route="E_N" depart="0.0" />
    <vehicle id="W_E_12" type="standard_car" route="W_E" depart="0.0" />
    <vehicle id="W_E_13" type="standard_car" route="W_E" depart="0.0" />
    <vehicle id="S_E_14" type="standard_car" route="N_E" depart="0.0" />
    <vehicle id="S_N_15" type="standard_car" route="S_N" depart="0.0" />
    <vehicle id="W_N_16" type="standard_car" route="W_N" depart="0.0" />
    <vehicle id="W_E_17" type="standard_car" route="W_E" depart="0.0" />
    <vehicle id="E_W_18" type="standard_car" route="E_W" depart="0.0" />
    <vehicle id="S_N_19" type="standard_car" route="S_N" depart="0.0" />
    <vehicle id="W_E_20" type="standard_car" route="W_E" depart="0.0" />
    <vehicle id="W_S_21" type="standard_car" route="W_S" depart="0.0" />
    <vehicle id="N_S_22" type="standard_car" route="N_S" depart="0.0" />
    <vehicle id="E_S_23" type="standard_car" route="E_S" depart="0.0" />
    <vehicle id="N_S_24" type="standard_car" route="N_S" depart="0.0" />
    <vehicle id="N_S_25" type="standard_car" route="N_S" depart="0.0" />
    <vehicle id="N_S_26" type="standard_car" route="N_S" depart="0.0" />
    <vehicle id="W_E_27" type="standard_car" route="W_E" depart="0.0" />
    <vehicle id="E_W_28" type="standard_car" route="E_W" depart="0.0" />
    <vehicle id="N_S_29" type="standard_car" route="N_S" depart="0.0" />
    <vehicle id="W_E_30" type="standard_car" route="W_E" depart="1.0" />
    <vehicle id="E_W_31" type="standard_car" route="E_W" depart="1.0" />
    <vehicle id="N_S_32" type="standard_car" route="N_S" depart="1.0" />
    <vehicle id="S_E_33" type="standard_car" route="N_E" depart="1.0" />
    <vehicle id="N_S_34" type="standard_car" route="N_S" depart="1.0" />
    <vehicle id="S_N_35" type="standard_car" route="S_N" depart="1.0" />
    <vehicle id="W_N_36" type="standard_car" route="W_N" depart="1.0" />
    <vehicle id="N_S_37" type="standard_car" route="N_S" depart="1.0" />
    <vehicle id="N_S_38" type="standard_car" route="N_S" depart="1.0" />
    <vehicle id="W_E_39" type="standard_car" route="W_E" depart="1.0" />
    <vehicle id="S_N_40" type="standard_car" route="S_N" depart="1.0" />
    <vehicle id="W_E_41" type="standard_car" route="W_E" depart="1.0" />
    <vehicle id="N_S_42" type="standard_car" route="N_S" depart="1.0" />
    <vehicle id="N_S_43" type="standard_car" route="N_S" depart="1.0" />
    <vehicle id="S_N_44" type="standard_car" route="S_N" depart="1.0" />
    <vehicle id="W_N_45" type="standard_car" route="W_N" depart="1.0" />
    <vehicle id="S_N_46" type="standard_car" route="S_N" depart="1.0" />
    <vehicle id="S_N_47" type="standard_car" route="S_N" depart="1.0" />
    <vehicle id="S_N_48" type="standard_car" route="S_N" depart="1.0" />
    <vehicle id="W_E_49" type="standard_car" route="W_E" depart="1.0" />
    <vehicle id="N_S_50" type="standard_car" route="N_S" depart="1.0" />
    <vehicle id="N_S_51" type="standard_car" route="N_S" depart="1.0" />
    <vehicle id="E_W_52" type="standard_car" route="E_W" depart="1.0" />
    <vehicle id="N_S_53" type="standard_car" route="N_S" depart="1.0" />
    <vehicle id="E_S_54" type="standard_car" route="E_S" depart="1.0" />
    <vehicle id="E_S_55" type="standard_car" route="E_S" depart="1.0" />
    <vehicle id="S_N_56" type="standard_car" route="S_N" depart="1.0" />
    <vehicle id="E_W_57" type="standard_car" route="E_W" depart="1.0" />
    <vehicle id="W_S_58" type="standard_car" route="W_S" depart="2.0" />
    <vehicle id="E_W_59" type="standard_car" route="E_W" depart="2.0" />
    <vehicle id="E_N_60" type="standard_car" route="E_N" depart="2.0" />
    <vehicle id="S_N_61" type="standard_car" route="S_N" depart="2.0" />
    <vehicle id="N_S_62" type="standard_car" route="N_S" depart="2.0" />
    <vehicle id="W_E_63" type="standard_car" route="W_E" depart="2.0" />
    <vehicle id="E_S_64" type="standard_car" route="E_S" depart="2.0" />
    <vehicle id="S_N_65" type="standard_car" route="S_N" depart="2.0" />
    <vehicle id="W_E_66" type="standard_car" route="W_E" depart="2.0" />
    <vehicle id="W_N_67" type="standard_car" route="W_N" depart="2.0" />
    <vehicle id="N_S_68" type="standard_car" route="N_S" depart="2.0" />
    <vehicle id="N_W_69" type="standard_car" route="N_W" depart="2.0" />
    <vehicle id="W_E_70" type="standard_car" route="W_E" depart="2.0" />
    <vehicle id="S_E_71" type="standard_car" route="N_E" depart="2.0" />
    <vehicle id="S_E_72" type="standard_car" route="N_E" depart="2.0" />
    <vehicle id="W_S_73" type="standard_car" route="W_S" depart="2.0" />
    <vehicle id="S_N_74" type="standard_car" route="S_N" depart="2.0" />
    <vehicle id="S_N_75" type="standard_car" route="S_N" depart="2.0" />
    <vehicle id="W_E_76" type="standard_car" route="W_E" depart="3.0" />
    <vehicle id="S_N_77" type="standard_car" route="S_N" depart="3.0" />
    <vehicle id="N_S_78" type="standard_car" route="N_S" depart="3.0" />
    <vehicle id="N_S_79" type="standard_car" route="N_S" depart="3.0" />
    <vehicle id="W_E_80" type="standard_car" route="W_E" depart="3.0" />
    <vehicle id="S_N_81" type="standard_car" route="S_N" depart="3.0" />
    <vehicle id="S_N_82" type="standard_car" route="S_N" depart="3.0" />
    <vehicle id="S_W_83" type="standard_car" route="S_W" depart="3.0" />
    <vehicle id="N_S_84" type="standard_car" route="N_S" depart="3.0" />
    <vehicle id="W_E_85" type="standard_car" route="W_E" depart="3.0" />
    <vehicle id="N_W_86" type="standard_car" route="N_W" depart="3.0" />
    <vehicle id="W_E_87" type="standard_car" route="W_E" depart="3.0" />
    <vehicle id="N_S_88" type="standard_car" route="N_S" depart="4.0" />
    <vehicle id="S_N_89" type="standard_car" route="S_N" depart="4.0" />
    <vehicle id="W_E_90" type="standard_car" route="W_E" depart="4.0" />
    <vehicle id="W_N_91" type="standard_car" route="W_N" depart="4.0" />
    <vehicle id="W_E_92" type="standard_car" route="W_E" depart="4.0" />
    <vehicle id="S_N_93" type="standard_car" route="S_N" depart="4.0" />
    <vehicle id="S_E_94" type="standard_car" route="N_E" depart="4.0" />
    <vehicle id="S_N_95" type="standard_car" route="S_N" depart="4.0" />
    <vehicle id="W_E_96" type="standard_car" route="W_E" depart="4.0" />
    <vehicle id="W_N_97" type="standard_car" route="W_N" depart="4.0" />
    <vehicle id="S_N_98" type="standard_car" route="S_N" depart="4.0" />
    <vehicle id="N_S_99" type="standard_car" route="N_S" depart="5.0" />
    <vehicle id="N_S_100" type="standard_car" route="N_S" depart="5.0" />
    <vehicle id="E_N_101" type="standard_car" route="E_N" depart="5.0" />
    <vehicle id="E_S_102" type="standard_car" route="E_S" depart="5.0" />
    <vehicle id="W_E_103" type="standard_car" route="W_E" depart="5.0" />
    <vehicle id="N_E_104" type="standard_car" route="N_E" depart="5.0" />
    <vehicle id="E_W_105" type="standard_car" route="E_W" depart="5.0" />
    <vehicle id="S_N_106" type="standard_car" route="S_N" depart="5.0" />
    <vehicle id="W_E_107" type="standard_car" route="W_E" depart="5.0" />
    <vehicle id="E_W_108" type="standard_car" route="E_W" depart="5.0" />
    <vehicle id="N_S_109" type="standard_car" route="N_S" depart="5.0" />
    <vehicle id="N_E_110" type="standard_car" route="N_E" depart="6.0" />
    <vehicle id="S_N_111" type="standard_car" route="S_N" depart="6.0" />
    <vehicle id="N_S_112" type="standard_car" route="N_S" depart="6.0" />
    <vehicle id="E_W_113" type="standard_car" route="E_W" depart="6.0" />
    <vehicle id="W_E_114" type="standard_car" route="W_E" depart="6.0" />
    <vehicle id="W_E_115" type="standard_car" route="W_E" depart="6.0" />
    <vehicle id="N_S_116" type="standard_car" route="N_S" depart="6.0" />
    <vehicle id="N_S_117" type="standard_car" route="N_S" depart="6.0" />
    <vehicle id="E_S_118" type="standard_car" route="E_S" depart="6.0" />
    <vehicle id="E_W_119" type="standard_car" route="E_W" depart="6.0" />
    <vehicle id="E_W_120" type="standard_car" route="E_W" depart="6.0" />
    <vehicle id="N_S_121" type="standard_car" route="N_S" depart="6.0" />
    <vehicle id="W_E_122" type="standard_car" route="W_E" depart="7.0" />
    <vehicle id="N_S_123" type="standard_car" route="N_S" depart="7.0" />
    <vehicle id="W_S_124" type="standard_car" route="W_S" depart="7.0" />
    <vehicle id="W_E_125" type="standard_car" route="W_E" depart="7.0" />
    <vehicle id="W_N_126" type="standard_car" route="W_N" depart="7.0" />
    <vehicle id="S_N_127" type="standard_car" route="S_N" depart="7.0" />
    <vehicle id="N_S_128" type="standard_car" route="N_S" depart="7.0" />
    <vehicle id="S_N_129" type="standard_car" route="S_N" depart="8.0" />
    <vehicle id="W_E_130" type="standard_car" route="W_E" depart="8.0" />
    <vehicle id="N_E_131" type="standard_car" route="N_E" depart="8.0" />
    <vehicle id="N_S_132" type="standard_car" route="N_S" depart="8.0" />
    <vehicle id="S_W_133" type="standard_car" route="S_W" depart="8.0" />
    <vehicle id="S_N_134" type="standard_car" route="S_N" depart="8.0" />
    <vehicle id="W_E_135" type="standard_car" route="W_E" depart="8.0" />
    <vehicle id="E_W_136" type="standard_car" route="E_W" depart="8.0" />
    <vehicle id="S_N_137" type="standard_car" route="S_N" depart="8.0" />
    <vehicle id="N_S_138" type="standard_car" route="N_S" depart="8.0" />
    <vehicle id="W_S_139" type="standard_car" route="W_S" depart="8.0" />
    <vehicle id="S_N_140" type="standard_car" route="S_N" depart="9.0" />
    <vehicle id="S_N_141" type="standard_car" route="S_N" depart="9.0" />
    <vehicle id="S_N_142" type="standard_car" route="S_N" depart="9.0" />
    <vehicle id="W_E_143" type="standard_car" route="W_E" depart="9.0" />
    <vehicle id="W_E_144" type="standard_car" route="W_E" depart="9.0" />
    <vehicle id="E_W_145" type="standard_car" route="E_W" depart="9.0" />
    <vehicle id="S_N_146" type="standard_car" route="S_N" depart="9.0" />
    <vehicle id="N_S_147" type="standard_car" route="N_S" depart="9.0" />
    <vehicle id="N_W_148" type="standard_car" route="N_W" depart="9.0" />
    <vehicle id="W_S_149" type="standard_car" route="W_S" depart="9.0" />
    <vehicle id="S_N_150" type="standard_car" route="S_N" depart="9.0" />
    <vehicle id="W_E_151" type="standard_car" route="W_E" depart="9.0" />
    <vehicle id="E_S_152" type="standard_car" route="E_S" depart="9.0" />
    <vehicle id="S_W_153" type="standard_car" route="S_W" depart="9.0" />
    <vehicle id="N_E_154" type="standard_car" route="N_E" depart="9.0" />
    <vehicle id="W_E_155" type="standard_car" route="W_E" depart="10.0" />
    <vehicle id="S_N_156" type="standard_car" route="S_N" depart="10.0" />
    <vehicle id="E_S_157" type="standard_car" route="E_S" depart="10.0" />
    <vehicle id="S_N_158" type="standard_car" route="S_N" depart="10.0" />
    <vehicle id="S_E_159" type="standard_car" route="N_E" depart="10.0" />
    <vehicle id="N_S_160" type="standard_car" route="N_S" depart="10.0" />
    <vehicle id="W_E_161" type="standard_car" route="W_E" depart="10.0" />
    <vehicle id="S_N_162" type="standard_car" route="S_N" depart="10.0" />
    <vehicle id="N_S_163" type="standard_car" route="N_S" depart="11.0" />
    <vehicle id="S_N_164" type="standard_car" route="S_N" depart="11.0" />
    <vehicle id="N_S_165" type="standard_car" route="N_S" depart="11.0" />
    <vehicle id="S_W_166" type="standard_car" route="S_W" depart="11.0" />
    <vehicle id="S_N_167" type="standard_car" route="S_N" depart="11.0" />
    <vehicle id="E_W_168" type="standard_car" route="E_W" depart="11.0" />
    <vehicle id="E_S_169" type="standard_car" route="E_S" depart="11.0" />
    <vehicle id="E_N_170" type="standard_car" route="E_N" depart="11.0" />
    <vehicle id="S_W_171" type="standard_car" route="S_W" depart="11.0" />
    <vehicle id="W_E_172" type="standard_car" route="W_E" depart="11.0" />
    <vehicle id="S_N_173" type="standard_car" route="S_N" depart="11.0" />
    <vehicle id="S_N_174" type="standard_car" route="S_N" depart="12.0" />
    <vehicle id="W_E_175" type="standard_car" route="W_E" depart="12.0" />
    <vehicle id="W_E_176" type="standard_car" route="W_E" depart="12.0" />
    <vehicle id="W_E_177" type="standard_car" route="W_E" depart="12.0" />
    <vehicle id="E_W_178" type="standard_car" route="E_W" depart="12.0" />
    <vehicle id="W_E_179" type="standard_car" route="W_E" depart="12.0" />
    <vehicle id="E_W_180" type="standard_car" route="E_W" depart="12.0" />
    <vehicle id="S_N_181" type="standard_car" route="S_N" depart="12.0" />
    <vehicle id="S_N_182" type="standard_car" route="S_N" depart="12.0" />
    <vehicle id="W_N_183" type="standard_car" route="W_N" depart="12.0" />
    <vehicle id="E_W_184" type="standard_car" route="E_W" depart="13.0" />
    <vehicle id="E_W_185" type="standard_car" route="E_W" depart="13.0" />
    <vehicle id="N_S_186" type="standard_car" route="N_S" depart="13.0" />
    <vehicle id="S_W_187" type="standard_car" route="S_W" depart="13.0" />
    <vehicle id="E_W_188" type="standard_car" route="E_W" depart="13.0" />
    <vehicle id="E_W_189" type="standard_car" route="E_W" depart="14.0" />
    <vehicle id="N_W_190" type="standard_car" route="N_W" depart="14.0" />
    <vehicle id="N_S_191" type="standard_car" route="N_S" depart="14.0" />
    <vehicle id="W_E_192" type="standard_car" route="W_E" depart="14.0" />
    <vehicle id="S_N_193" type="standard_car" route="S_N" depart="15.0" />
    <vehicle id="N_E_194" type="standard_car" route="N_E" depart="15.0" />
    <vehicle id="S_N_195" type="standard_car" route="S_N" depart="15.0" />
    <vehicle id="S_N_196" type="standard_car" route="S_N" depart="15.0" />
    <vehicle id="N_E_197" type="standard_car" route="N_E" depart="15.0" />
    <vehicle id="E_W_198" type="standard_car" route="E_W" depart="15.0" />
    <vehicle id="N_S_199" type="standard_car" route="N_S" depart="15.0" />
    <vehicle id="N_S_200" type="standard_car" route="N_S" depart="15.0" />
    <vehicle id="E_N_201" type="standard_car" route="E_N" depart="15.0" />
    <vehicle id="N_S_202" type="standard_car" route="N_S" depart="15.0" />
    <vehicle id="W_E_203" type="standard_car" route="W_E" depart="15.0" />
    <vehicle id="N_S_204" type="standard_car" route="N_S" depart="16.0" />
    <vehicle id="N_W_205" type="standard_car" route="N_W" depart="16.0" />
    <vehicle id="N_S_206" type="standard_car" route="N_S" depart="16.0" />
    <vehicle id="S_N_207" type="standard_car" route="S_N" depart="16.0" />
    <vehicle id="E_N_208" type="standard_car" route="E_N" depart="16.0" />
    <vehicle id="S_N_209" type="standard_car" route="S_N" depart="16.0" />
    <vehicle id="S_E_210" type="standard_car" route="N_E" depart="17.0" />
    <vehicle id="E_W_211" type="standard_car" route="E_W" depart="17.0" />
    <vehicle id="N_S_212" type="standard_car" route="N_S" depart="17.0" />
    <vehicle id="S_E_213" type="standard_car" route="N_E" depart="17.0" />
    <vehicle id="E_W_214" type="standard_car" route="E_W" depart="17.0" />
    <vehicle id="N_S_215" type="standard_car" route="N_S" depart="17.0" />
    <vehicle id="N_S_216" type="standard_car" route="N_S" depart="17.0" />
    <vehicle id="N_W_217" type="standard_car" route="N_W" depart="17.0" />
    <vehicle id="S_N_218" type="standard_car" route="S_N" depart="18.0" />
    <vehicle id="E_W_219" type="standard_car" route="E_W" depart="18.0" />
    <vehicle id="S_N_220" type="standard_car" route="S_N" depart="18.0" />
    <vehicle id="E_W_221" type="standard_car" route="E_W" depart="18.0" />
    <vehicle id="W_S_222" type="standard_car" route="W_S" depart="18.0" />
    <vehicle id="E_W_223" type="standard_car" route="E_W" depart="19.0" />
    <vehicle id="N_E_224" type="standard_car" route="N_E" depart="19.0" />
    <vehicle id="E_W_225" type="standard_car" route="E_W" depart="19.0" />
    <vehicle id="E_W_226" type="standard_car" route="E_W" depart="19.0" />
    <vehicle id="E_N_227" type="standard_car" route="E_N" depart="19.0" />
    <vehicle id="W_N_228" type="standard_car" route="W_N" depart="19.0" />
    <vehicle id="W_E_229" type="standard_car" route="W_E" depart="19.0" />
    <vehicle id="W_S_230" type="standard_car" route="W_S" depart="20.0" />
    <vehicle id="S_N_231" type="standard_car" route="S_N" depart="20.0" />
    <vehicle id="E_W_232" type="standard_car" route="E_W" depart="20.0" />
    <vehicle id="E_W_233" type="standard_car" route="E_W" depart="20.0" />
    <vehicle id="W_E_234" type="standard_car" route="W_E" depart="21.0" />
    <vehicle id="S_N_235" type="standard_car" route="S_N" depart="21.0" />
    <vehicle id="W_N_236" type="standard_car" route="W_N" depart="21.0" />
    <vehicle id="S_E_237" type="standard_car" route="N_E" depart="21.0" />
    <vehicle id="N_S_238" type="standard_car" route="N_S" depart="21.0" />
    <vehicle id="S_W_239" type="standard_car" route="S_W" depart="21.0" />
    <vehicle id="N_W_240" type="standard_car" route="N_W" depart="22.0" />
    <vehicle id="S_W_241" type="standard_car" route="S_W" depart="22.0" />
    <vehicle id="E_W_242" type="standard_car" route="E_W" depart="22.0" />
    <vehicle id="S_N_243" type="standard_car" route="S_N" depart="22.0" />
    <vehicle id="E_W_244" type="standard_car" route="E_W" depart="22.0" />
    <vehicle id="N_S_245" type="standard_car" route="N_S" depart="23.0" />
    <vehicle id="W_E_246" type="standard_car" route="W_E" depart="23.0" />
    <vehicle id="S_N_247" type="standard_car" route="S_N" depart="23.0" />
    <vehicle id="W_S_248" type="standard_car" route="W_S" depart="23.0" />
    <vehicle id="E_W_249" type="standard_car" route="E_W" depart="24.0" />
    <vehicle id="N_E_250" type="standard_car" route="N_E" depart="24.0" />
    <vehicle id="E_W_251" type="standard_car" route="E_W" depart="24.0" />
    <vehicle id="W_E_252" type="standard_car" route="W_E" depart="24.0" />
    <vehicle id="W_E_253" type="standard_car" route="W_E" depart="24.0" />
    <vehicle id="E_N_254" type="standard_car" route="E_N" depart="24.0" />
    <vehicle id="E_W_255" type="standard_car" route="E_W" depart="25.0" />
    <vehicle id="N_E_256" type="standard_car" route="N_E" depart="25.0" />
    <vehicle id="N_S_257" type="standard_car" route="N_S" depart="25.0" />
    <vehicle id="S_N_258" type="standard_car" route="S_N" depart="26.0" />
    <vehicle id="E_W_259" type="standard_car" route="E_W" depart="26.0" />
    <vehicle id="E_W_260" type="standard_car" route="E_W" depart="26.0" />
    <vehicle id="E_W_261" type="standard_car" route="E_W" depart="27.0" />
    <vehicle id="S_E_262" type="standard_car" route="N_E" depart="27.0" />
    <vehicle id="N_E_263" type="standard_car" route="N_E" depart="27.0" />
    <vehicle id="S_N_264" type="standard_car" route="S_N" depart="27.0" />
    <vehicle id="E_W_265" type="standard_car" route="E_W" depart="28.0" />
    <vehicle id="W_E_266" type="standard_car" route="W_E" depart="28.0" />
    <vehicle id="E_S_267" type="standard_car" route="E_S" depart="28.0" />
    <vehicle id="E_W_268" type="standard_car" route="E_W" depart="28.0" />
    <vehicle id="N_S_269" type="standard_car" route="N_S" depart="28.0" />
    <vehicle id="E_W_270" type="standard_car" route="E_W" depart="28.0" />
    <vehicle id="N_S_271" type="standard_car" route="N_S" depart="28.0" />
    <vehicle id="W_S_272" type="standard_car" route="W_S" depart="28.0" />
    <vehicle id="W_E_273" type="standard_car" route="W_E" depart="28.0" />
    <vehicle id="E_W_274" type="standard_car" route="E_W" depart="28.0" />
    <vehicle id="S_N_275" type="standard_car" route="S_N" depart="29.0" />
    <vehicle id="W_E_276" type="standard_car" route="W_E" depart="29.0" />
    <vehicle id="E_W_277" type="standard_car" route="E_W" depart="29.0" />
    <vehicle id="N_S_278" type="standard_car" route="N_S" depart="30.0" />
    <vehicle id="N_S_279" type="standard_car" route="N_S" depart="30.0" />
    <vehicle id="S_N_280" type="standard_car" route="S_N" depart="30.0" />
    <vehicle id="N_S_281" type="standard_car" route="N_S" depart="31.0" />
    <vehicle id="W_S_282" type="standard_car" route="W_S" depart="31.0" />
    <vehicle id="W_E_283" type="standard_car" route="W_E" depart="31.0" />
    <vehicle id="N_S_284" type="standard_car" route="N_S" depart="31.0" />
    <vehicle id="N_S_285" type="standard_car" route="N_S" depart="31.0" />
    <vehicle id="W_E_286" type="standard_car" route="W_E" depart="31.0" />
    <vehicle id="S_N_287" type="standard_car" route="S_N" depart="31.0" />
    <vehicle id="S_N_288" type="standard_car" route="S_N" depart="32.0" />
    <vehicle id="E_W_289" type="standard_car" route="E_W" depart="32.0" />
    <vehicle id="S_E_290" type="standard_car" route="N_E" depart="32.0" />
    <vehicle id="N_S_291" type="standard_car" route="N_S" depart="32.0" />
    <vehicle id="E_W_292" type="standard_car" route="E_W" depart="32.0" />
    <vehicle id="S_W_293" type="standard_car" route="S_W" depart="33.0" />
    <vehicle id="W_E_294" type="standard_car" route="W_E" depart="33.0" />
    <vehicle id="N_E_295" type="standard_car" route="N_E" depart="34.0" />
    <vehicle id="N_S_296" type="standard_car" route="N_S" depart="34.0" />
    <vehicle id="W_E_297" type="standard_car" route="W_E" depart="34.0" />
    <vehicle id="W_E_298" type="standard_car" route="W_E" depart="35.0" />
    <vehicle id="N_S_299" type="standard_car" route="N_S" depart="35.0" />
    <vehicle id="S_N_300" type="standard_car" route="S_N" depart="35.0" />
    <vehicle id="S_N_301" type="standard_car" route="S_N" depart="36.0" />
    <vehicle id="N_S_302" type="standard_car" route="N_S" depart="36.0" />
    <vehicle id="N_W_303" type="standard_car" route="N_W" depart="36.0" />
    <vehicle id="N_S_304" type="standard_car" route="N_S" depart="36.0" />
    <vehicle id="N_E_305" type="standard_car" route="N_E" depart="36.0" />
    <vehicle id="W_E_306" type="standard_car" route="W_E" depart="37.0" />
    <vehicle id="N_S_307" type="standard_car" route="N_S" depart="37.0" />
    <vehicle id="S_N_308" type="standard_car" route="S_N" depart="37.0" />
    <vehicle id="S_N_309" type="standard_car" route="S_N" depart="38.0" />
    <vehicle id="N_E_310" type="standard_car" route="N_E" depart="38.0" />
    <vehicle id="N_E_311" type="standard_car" route="N_E" depart="38.0" />
    <vehicle id="W_E_312" type="standard_car" route="W_E" depart="38.0" />
    <vehicle id="E_W_313" type="standard_car" route="E_W" depart="38.0" />
    <vehicle id="N_S_314" type="standard_car" route="N_S" depart="39.0" />
    <vehicle id="W_N_315" type="standard_car" route="W_N" depart="39.0" />
    <vehicle id="N_S_316" type="standard_car" route="N_S" depart="39.0" />
    <vehicle id="W_E_317" type="standard_car" route="W_E" depart="39.0" />
    <vehicle id="E_W_318" type="standard_car" route="E_W" depart="39.0" />
    <vehicle id="E_N_319" type="standard_car" route="E_N" depart="39.0" />
    <vehicle id="N_S_320" type="standard_car" route="N_S" depart="39.0" />
    <vehicle id="N_W_321" type="standard_car" route="N_W" depart="39.0" />
    <vehicle id="E_N_322" type="standard_car" route="E_N" depart="40.0" />
    <vehicle id="E_W_323" type="standard_car" route="E_W" depart="40.0" />
    <vehicle id="W_E_324" type="standard_car" route="W_E" depart="40.0" />
    <vehicle id="S_N_325" type="standard_car" route="S_N" depart="41.0" />
    <vehicle id="S_N_326" type="standard_car" route="S_N" depart="41.0" />
    <vehicle id="E_W_327" type="standard_car" route="E_W" depart="41.0" />
    <vehicle id="E_W_328" type="standard_car" route="E_W" depart="41.0" />
    <vehicle id="E_W_329" type="standard_car" route="E_W" depart="42.0" />
    <vehicle id="E_W_330" type="standard_car" route="E_W" depart="42.0" />
    <vehicle id="E_W_331" type="standard_car" route="E_W" depart="42.0" />
    <vehicle id="N_S_332" type="standard_car" route="N_S" depart="43.0" />
    <vehicle id="N_S_333" type="standard_car" route="N_S" depart="43.0" />
    <vehicle id="E_N_334" type="standard_car" route="E_N" depart="43.0" />
    <vehicle id="W_E_335" type="standard_car" route="W_E" depart="44.0" />
    <vehicle id="E_W_336" type="standard_car" route="E_W" depart="44.0" />
    <vehicle id="W_E_337" type="standard_car" route="W_E" depart="44.0" />
    <vehicle id="E_W_338" type="standard_car" route="E_W" depart="44.0" />
    <vehicle id="E_S_339" type="standard_car" route="E_S" depart="44.0" />
    <vehicle id="W_E_340" type="standard_car" route="W_E" depart="45.0" />
    <vehicle id="N_S_341" type="standard_car" route="N_S" depart="45.0" />
    <vehicle id="S_E_342" type="standard_car" route="N_E" depart="45.0" />
    <vehicle id="S_N_343" type="standard_car" route="S_N" depart="45.0" />
    <vehicle id="E_N_344" type="standard_car" route="E_N" depart="46.0" />
    <vehicle id="W_E_345" type="standard_car" route="W_E" depart="46.0" />
    <vehicle id="N_E_346" type="standard_car" route="N_E" depart="46.0" />
    <vehicle id="S_N_347" type="standard_car" route="S_N" depart="46.0" />
    <vehicle id="N_S_348" type="standard_car" route="N_S" depart="46.0" />
    <vehicle id="N_S_349" type="standard_car" route="N_S" depart="47.0" />
    <vehicle id="E_W_350" type="standard_car" route="E_W" depart="47.0" />
    <vehicle id="S_N_351" type="standard_car" route="S_N" depart="47.0" />
    <vehicle id="W_E_352" type="standard_car" route="W_E" depart="48.0" />
    <vehicle id="S_W_353" type="standard_car" route="S_W" depart="49.0" />
    <vehicle id="E_W_354" type="standard_car" route="E_W" depart="49.0" />
    <vehicle id="N_E_355" type="standard_car" route="N_E" depart="49.0" />
    <vehicle id="W_E_356" type="standard_car" route="W_E" depart="49.0" />
    <vehicle id="W_E_357" type="standard_car" route="W_E" depart="49.0" />
    <vehicle id="N_S_358" type="standard_car" route="N_S" depart="49.0" />
    <vehicle id="S_N_359" type="standard_car" route="S_N" depart="49.0" />
    <vehicle id="N_S_360" type="standard_car" route="N_S" depart="49.0" />
    <vehicle id="S_N_361" type="standard_car" route="S_N" depart="50.0" />
    <vehicle id="N_S_362" type="standard_car" route="N_S" depart="50.0" />
    <vehicle id="E_W_363" type="standard_car" route="E_W" depart="50.0" />
    <vehicle id="S_N_364" type="standard_car" route="S_N" depart="51.0" />
    <vehicle id="W_E_365" type="standard_car" route="W_E" depart="51.0" />
    <vehicle id="S_W_366" type="standard_car" route="S_W" depart="52.0" />
    <vehicle id="S_N_367" type="standard_car" route="S_N" depart="52.0" />
    <vehicle id="E_W_368" type="standard_car" route="E_W" depart="52.0" />
    <vehicle id="N_S_369" type="standard_car" route="N_S" depart="52.0" />
    <vehicle id="E_W_370" type="standard_car" route="E_W" depart="53.0" />
    <vehicle id="E_S_371" type="standard_car" route="E_S" depart="53.0" />
    <vehicle id="N_W_372" type="standard_car" route="N_W" depart="53.0" />
    <vehicle id="N_S_373" type="standard_car" route="N_S" depart="54.0" />
    <vehicle id="N_S_374" type="standard_car" route="N_S" depart="54.0" />
    <vehicle id="N_S_375" type="standard_car" route="N_S" depart="55.0" />
    <vehicle id="W_E_376" type="standard_car" route="W_E" depart="55.0" />
    <vehicle id="S_N_377" type="standard_car" route="S_N" depart="55.0" />
    <vehicle id="W_E_378" type="standard_car" route="W_E" depart="55.0" />
    <vehicle id="E_W_379" type="standard_car" route="E_W" depart="56.0" />
    <vehicle id="S_N_380" type="standard_car" route="S_N" depart="56.0" />
    <vehicle id="N_S_381" type="standard_car" route="N_S" depart="56.0" />
    <vehicle id="W_E_382" type="standard_car" route="W_E" depart="57.0" />
    <vehicle id="W_E_383" type="standard_car" route="W_E" depart="58.0" />
    <vehicle id="S_E_384" type="standard_car" route="N_E" depart="58.0" />
    <vehicle id="S_N_385" type="standard_car" route="S_N" depart="58.0" />
    <vehicle id="S_N_386" type="standard_car" route="S_N" depart="58.0" />
    <vehicle id="S_E_387" type="standard_car" route="N_E" depart="59.0" />
    <vehicle id="S_N_388" type="standard_car" route="S_N" depart="59.0" />