<routes>
    <vType accel="1.0" decel="4.5" id="standard_car" length="5.0" minGap="2.5" maxSpeed="25" sigma="0.5" />

    <route id="W_N" edges="W2TL TL2N"/>
    <route id="W_E" edges="W2TL TL2E"/>
    <route id="W_S" edges="W2TL TL2S"/>
    <route id="N_W" edges="N2TL TL2W"/>
    <route id="N_E" edges="N2TL TL2E"/>
    <route id="N_S" edges="N2TL TL2S"/>
    <route id="E_W" edges="E2TL TL2W"/>
    <route id="E_N" edges="E2TL TL2N"/>
    <route id="E_S" edges="E2TL TL2S"/>
    <route id="S_W" edges="S2TL TL2W"/>
    <route id="S_N" edges="S2TL TL2N"/>
    <route id="S_E" edges="S2TL TL2E"/>
    <vehicle id="E_W_0" type="standard_car" route="E_W" depart="8.0" />
    <vehicle id="E_W_1" type="standard_car" route="E_W" depart="17.0" />
    <vehicle id="E_W_2" type="standard_car" route="E_W" depart="21.0" />
    <vehicle id="W_E_3" type="standard_car" route="W_E" depart="23.0" />
    <vehicle id="E_W_4" type="standard_car" route="E_W" depart="27.0" />
    <vehicle id="W_E_5" type="standard_car" route="W_E" depart="33.0" />
    <vehicle id="E_W_6" type="standard_car" route="E_W" depart="36.0" />
    <vehicle id="W_E_7" type="standard_car" route="W_E" depart="41.0" />
    <vehicle id="S_W_8" type="standard_car" route="S_W" depart="47.0" />
    <vehicle id="W_N_9" type="standard_car" route="W_N" depart="55.0" />
    <vehicle id="W_E_10" type="standard_car" route="W_E" depart="56.0" />
    <vehicle id="E_N_11" type="standard_car" route="E_N" depart="61.0" />
    <vehicle id="W_N_12" type="standard_car" route="W_N" depart="62.0" />
    <vehicle id="W_E_13" type="standard_car" route="W_E" depart="62.0" />
    <vehicle id="W_E_14" type="standard_car" route="W_E" depart="64.0" />
    <vehicle id="W_N_15" type="standard_car" route="W_N" depart="65.0" />
    <vehicle id="W_E_16" type="standard_car" route="W_E" depart="66.0" />
    <vehicle id="S_N_17" type="standard_car" route="S_N" depart="67.0" />
    <vehicle id="E_W_18" type="standard_car" route="E_W" depart="67.0" />
    <vehicle id="W_E_19" type="standard_car" route="W_E" depart="69.0" />
    <vehicle id="W_E_20" type="standard_car" route="W_E" depart="71.0" />
    <vehicle id="N_W_21" type="standard_car" route="N_W" depart="77.0" />
    <vehicle id="E_W_22" type="standard_car" route="E_W" depart="80.0" />
    <vehicle id="W_E_23" type="standard_car" route="W_E" depart="80.0" />
    <vehicle id="W_E_24" type="standard_car" route="W_E" depart="86.0" />
    <vehicle id="W_E_25" type="standard_car" route="W_E" depart="87.0" />
    <vehicle id="E_N_26" type="standard_car" route="E_N" depart="87.0" />
    <vehicle id="W_E_27" type="standard_car" route="W_E" depart="91.0" />
    <vehicle id="W_E_28" type="standard_car" route="W_E" depart="93.0" />
    <vehicle id="W_E_29" type="standard_car" route="W_E" depart="94.0" />
    <vehicle id="E_W_30" type="standard_car" route="E_W" depart="96.0" />
    <vehicle id="E_W_31" type="standard_car" route="E_W" depart="96.0" />
    <vehicle id="W_E_32" type="standard_car" route="W_E" depart="98.0" />
    <vehicle id="W_E_33" type="standard_car" route="W_E" depart="99.0" />
    <vehicle id="S_N_34" type="standard_car" route="S_N" depart="100.0" />
    <vehicle id="E_W_35" type="standard_car" route="E_W" depart="104.0" />
    <vehicle id="W_E_36" type="standard_car" route="W_E" depart="104.0" />
    <vehicle id="W_E_37" type="standard_car" route="W_E" depart="105.0" />
    <vehicle id="E_N_38" type="standard_car" route="E_N" depart="106.0" />
    <vehicle id="W_N_39" type="standard_car" route="W_N" depart="108.0" />
    <vehicle id="W_E_40" type="standard_car" route="W_E" depart="108.0" />
    <vehicle id="W_E_41" type="standard_car" route="W_E" depart="109.0" />
    <vehicle id="W_S_42" type="standard_car" route="W_S" depart="111.0" />
    <vehicle id="N_S_43" type="standard_car" route="N_S" depart="113.0" />
    <vehicle id="W_E_44" type="standard_car" route="W_E" depart="113.0" />
    <vehicle id="E_N_45" type="standard_car" route="E_N" depart="113.0" />
    <vehicle id="W_E_46" type="standard_car" route="W_E" depart="115.0" />
    <vehicle id="W_E_47" type="standard_car" route="W_E" depart="115.0" />
    <vehicle id="E_W_48" type="standard_car" route="E_W" depart="116.0" />
    <vehicle id="W_E_49" type="standard_car" route="W_E" depart="117.0" />
    <vehicle id="W_E_50" type="standard_car" route="W_E" depart="118.0" />
    <vehicle id="W_E_51" type="standard_car" route="W_E" depart="118.0" />
    <vehicle id="E_W_52" type="standard_car" route="E_W" depart="118.0" />
    <vehicle id="E_W_53" type="standard_car" route="E_W" depart="120.0" />
    <vehicle id="W_E_54" type="standard_car" route="W_E" depart="122.0" />
    <vehicle id="E_S_55" type="standard_car" route="E_S" depart="123.0" />
    <vehicle id="W_N_56" type="standard_car" route="W_N" depart="124.0" />
    <vehicle id="E_W_57" type="standard_car" route="E_W" depart="125.0" />
    <vehicle id="W_E_58" type="standard_car" route="W_E" depart="125.0" />
    <vehicle id="W_E_59" type="standard_car" route="W_E" depart="125.0" />
    <vehicle id="W_E_60" type="standard_car" route="W_E" depart="126.0" />
    <vehicle id="W_E_61" type="standard_car" route="W_E" depart="127.0" />
    <vehicle id="W_E_62" type="standard_car" route="W_E" depart="128.0" />
    <vehicle id="E_W_63" type="standard_car" route="E_W" depart="129.0" />
    <vehicle id="N_S_64" type="standard_car" route="N_S" depart="130.0" />
    <vehicle id="E_W_65" type="standard_car" route="E_W" depart="131.0" />
    <vehicle id="E_W_66" type="standard_car" route="E_W" depart="132.0" />
    <vehicle id="E_S_67" type="standard_car" route="E_S" depart="134.0" />
    <vehicle id="W_E_68" type="standard_car" route="W_E" depart="137.0" />
    <vehicle id="E_W_69" type="standard_car" route="E_W" depart="138.0" />
    <vehicle id="E_W_70" type="standard_car" route="E_W" depart="141.0" />
    <vehicle id="W_E_71" type="standard_car" route="W_E" depart="141.0" />
    <vehicle id="E_N_72" type="standard_car" route="E_N" depart="142.0" />
    <vehicle id="E_W_73" type="standard_car" route="E_W" depart="142.0" />
    <vehicle id="E_W_74" type="standard_car" route="E_W" depart="142.0" />
    <vehicle id="W_E_75" type="standard_car" route="W_E" depart="142.0" />
    <vehicle id="E_W_76" type="standard_car" route="E_W" depart="143.0" />
    <vehicle id="E_W_77" type="standard_car" route="E_W" depart="143.0" />
    <vehicle id="W_S_78" type="standard_car" route="W_S" depart="144.0" />
    <vehicle id="N_S_79" type="standard_car" route="N_S" depart="144.0" />
    <vehicle id="W_E_80" type="standard_car" route="W_E" depart="144.0" />
    <vehicle id="W_E_81" type="standard_car" route="W_E" depart="145.0" />
    <vehicle id="E_W_82" type="standard_car" route="E_W" depart="145.0" />
    <vehicle id="E_S_83" type="standard_car" route="E_S" depart="147.0" />
    <vehicle id="E_S_84" type="standard_car" route="E_S" depart="147.0" />
    <vehicle id="W_N_85" type="standard_car" route="W_N" depart="149.0" />
    <vehicle id="E_W_86" type="standard_car" route="E_W" depart="151.0" />
    <vehicle id="E_W_87" type="standard_car" route="E_W" depart="152.0" />
    <vehicle id="E_W_88" type="standard_car" route="E_W" depart="153.0" />
    <vehicle id="E_S_89" type="standard_car" route="E_S" depart="154.0" />
    <vehicle id="W_E_90" type="standard_car" route="W_E" depart="155.0" />
    <vehicle id="E_S_91" type="standard_car" route="E_S" depart="155.0" />
    <vehicle id="E_N_92" type="standard_car" route="E_N" depart="156.0" />
    <vehicle id="W_E_93" type="standard_car" route="W_E" depart="157.0" />
    <vehicle id="E_W_94" type="standard_car" route="E_W" depart="158.0" />
    <vehicle id="E_W_95" type="standard_car" route="E_W" depart="158.0" />
    <vehicle id="W_N_96" type="standard_car" route="W_N" depart="158.0" />
    <vehicle id="E_W_97" type="standard_car" route="E_W" depart="158.0" />
    <vehicle id="E_W_98" type="standard_car" route="E_W" depart="159.0" />
    <vehicle id="W_E_99" type="standard_car" route="W_E" depart="161.0" />
    <vehicle id="E_W_100" type="standard_car" route="E_W" depart="162.0" />
    <vehicle id="E_W_101" type="standard_car" route="E_W" depart="164.0" />
    <vehicle id="W_E_102" type="standard_car" route="W_E" depart="165.0" />
    <vehicle id="W_E_103" type="standard_car" route="W_E" depart="165.0" />
    <vehicle id="E_W_104" type="standard_car" route="E_W" depart="166.0" />
    <vehicle id="E_N_105" type="standard_car" route="E_N" depart="166.0" />
    <vehicle id="E_S_106" type="standard_car" route="E_S" depart="168.0" />
    <vehicle id="E_W_107" type="standard_car" route="E_W" depart="168.0" />
    <vehicle id="E_W_108" type="standard_car" route="E_W" depart="170.0" />
    <vehicle id="E_W_109" type="standard_car" route="E_W" depart="170.0" />
    <vehicle id="W_E_110" type="standard_car" route="W_E" depart="170.0" />
    <vehicle id="E_W_111" type="standard_car" route="E_W" depart="171.0" />
    <vehicle id="W_E_112" type="standard_car" route="W_E" depart="172.0" />
    <vehicle id="W_E_113" type="standard_car" route="W_E" depart="172.0" />
    <vehicle id="E_S_114" type="standard_car" route="E_S" depart="174.0" />
    <vehicle id="E_W_115" type="standard_car" route="E_W" depart="175.0" />
    <vehicle id="W_E_116" type="standard_car" route="W_E" depart="175.0" />
    <vehicle id="W_E_117" type="standard_car" route="W_E" depart="177.0" />
    <vehicle id="W_E_118" type="standard_car" route="W_E" depart="177.0" />
    <vehicle id="W_E_119" type="standard_car" route="W_E" depart="178.0" />
    <vehicle id="S_N_120" type="standard_car" route="S_N" depart="180.0" />
    <vehicle id="N_S_121" type="standard_car" route="N_S" depart="180.0" />
    <vehicle id="N_S_122" type="standard_car" route="N_S" depart="181.0" />
    <vehicle id="E_W_123" type="standard_car" route="E_W" depart="182.0" />
    <vehicle id="E_W_124" type="standard_car" route="E_W" depart="184.0" />
    <vehicle id="W_E_125" type="standard_car" route="W_E" depart="185.0" />
    <vehicle id="W_E_126" type="standard_car" route="W_E" depart="185.0" />
    <vehicle id="W_E_127" type="standard_car" route="W_E" depart="185.0" />
    <vehicle id="E_W_128" type="standard_car" route="E_W" depart="187.0" />
    <vehicle id="E_S_129" type="standard_car" route="E_S" depart="187.0" />
    <vehicle id="W_E_130" type="standard_car" route="W_E" depart="187.0" />
    <vehicle id="E_W_131" type="standard_car" route="E_W" depart="188.0" />
    <vehicle id="S_N_132" type="standard_car" route="S_N" depart="188.0" />
    <vehicle id="S_N_133" type="standard_car" route="S_N" depart="188.0" />
    <vehicle id="W_E_134" type="standard_car" route="W_E" depart="189.0" />
    <vehicle id="E_W_135" type="standard_car" route="E_W" depart="189.0" />
    <vehicle id="E_S_136" type="standard_car" route="E_S" depart="191.0" />
    <vehicle id="E_N_137" type="standard_car" route="E_N" depart="191.0" />
    <vehicle id="S_E_138" type="standard_car" route="N_E" depart="191.0" />
    <vehicle id="S_N_139" type="standard_car" route="S_N" depart="192.0" />
    <vehicle id="E_W_140" type="standard_car" route="E_W" depart="192.0" />
    <vehicle id="N_S_141" type="standard_car" route="N_S" depart="192.0" />
    <vehicle id="E_W_142" type="standard_car" route="E_W" depart="192.0" />
    <vehicle id="E_N_143" type="standard_car" route="E_N" depart="194.0" />
    <vehicle id="N_S_144" type="standard_car" route="N_S" depart="195.0" />
    <vehicle id="E_W_145" type="standard_car" route="E_W" depart="195.0" />
    <vehicle id="N_S_146" type="standard_car" route="N_S" depart="197.0" />
    <vehicle id="E_W_147" type="standard_car" route="E_W" depart="201.0" />
    <vehicle id="E_W_148" type="standard_car" route="E_W" depart="202.0" />
    <vehicle id="W_E_149" type="standard_car" route="W_E" depart="202.0" />
    <vehicle id="W_E_150" type="standard_car" route="W_E" depart="203.0" />
    <vehicle id="W_E_151" type="standard_car" route="W_E" depart="204.0" />
    <vehicle id="W_E_152" type="standard_car" route="W_E" depart="206.0" />
    <vehicle id="W_E_153" type="standard_car" route="W_E" depart="206.0" />
    <vehicle id="E_W_154" type="standard_car" route="E_W" depart="206.0" />
    <vehicle id="E_W_155" type="standard_car" route="E_W" depart="209.0" />
    <vehicle id="E_S_156" type="standard_car" route="E_S" depart="211.0" />
    <vehicle id="E_W_157" type="standard_car" route="E_W" depart="211.0" />
    <vehicle id="E_W_158" type="standard_car" route="E_W" depart="211.0" />
    <vehicle id="E_W_159" type="standard_car" route="E_W" depart="212.0" />
    <vehicle id="E_W_160" type="standard_car" route="E_W" depart="213.0" />
    <vehicle id="E_W_161" type="standard_car" route="E_W" depart="213.0" />
    <vehicle id="E_N_162" type="standard_car" route="E_N" depart="215.0" />
    <vehicle id="E_W_163" type="standard_car" route="E_W" depart="216.0" />
    <vehicle id="E_W_164" type="standard_car" route="E_W" depart="218.0" />
    <vehicle id="E_W_165" type="standard_car" route="E_W" depart="218.0" />
    <vehicle id="W_E_166" type="standard_car" route="W_E" depart="220.0" />
    <vehicle id="E_W_167" type="standard_car" route="E_W" depart="220.0" />
    <vehicle id="E_W_168" type="standard_car" route="E_W" depart="220.0" />
    <vehicle id="E_S_169" type="standard_car" route="E_S" depart="221.0" />
    <vehicle id="E_W_170" type="standard_car" route="E_W" depart="221.0" />
    <vehicle id="E_W_171" type="standard_car" route="E_W" depart="222.0" />
    <vehicle id="W_N_172" type="standard_car" route="W_N" depart="222.0" />
    <vehicle id="W_E_173" type="standard_car" route="W_E" depart="223.0" />
    <vehicle id="W_E_174" type="standard_car" route="W_E" depart="223.0" />
    <vehicle id="W_E_175" type="standard_car" route="W_E" depart="224.0" />
    <vehicle id="E_W_176" type="standard_car" route="E_W" depart="224.0" />
    <vehicle id="E_W_177" type="standard_car" route="E_W" depart="224.0" />
    <vehicle id="W_E_178" type="standard_car" route="W_E" depart="225.0" />
    <vehicle id="W_S_179" type="standard_car" route="W_S" depart="226.0" />
    <vehicle id="E_W_180" type="standard_car" route="E_W" depart="226.0" />
    <vehicle id="W_S_181" type="standard_car" route="W_S" depart="227.0" />
    <vehicle id="E_S_182" type="standard_car" route="E_S" depart="227.0" />
    <vehicle id="W_E_183" type="standard_car" route="W_E" depart="229.0" />
    <vehicle id="E_S_184" type="standard_car" route="E_S" depart="229.0" />
    <vehicle id="E_W_185" type="standard_car" route="E_W" depart="229.0" />
    <vehicle id="E_N_186" type="standard_car" route="E_N" depart="230.0" />
    <vehicle id="E_W_187" type="standard_car" route="E_W" depart="230.0" />
    <vehicle id="E_W_188" type="standard_car" route="E_W" depart="231.0" />
    <vehicle id="E_W_189" type="standard_car" route="E_W" depart="231.0" />
    <vehicle id="W_E_190" type="standard_car" route="W_E" depart="232.0" />
    <vehicle id="W_E_191" type="standard_car" route="W_E" depart="234.0" />
    <vehicle id="W_E_192" type="standard_car" route="W_E" depart="234.0" />
    <vehicle id="E_W_193" type="standard_car" route="E_W" depart="234.0" />
    <vehicle id="W_N_194" type="standard_car" route="W_N" depart="235.0" />
    <vehicle id="E_W_195" type="standard_car" route="E_W" depart="235.0" />
    <vehicle id="E_W_196" type="standard_car" route="E_W" depart="236.0" />
    <vehicle id="W_E_197" type="standard_car" route="W_E" depart="237.0" />
    <vehicle id="W_N_198" type="standard_car" route="W_N" depart="238.0" />
    <vehicle id="E_S_199" type="standard_car" route="E_S" depart="239.0" />
    <vehicle id="W_E_200" type="standard_car" route="W_E" depart="239.0" />
    <vehicle id="W_S_201" type="standard_car" route="W_S" depart="239.0" />
    <vehicle id="E_W_202" type="standard_car" route="E_W" depart="239.0" />
    <vehicle id="W_E_203" type="standard_car" route="W_E" depart="240.0" />
    <vehicle id="W_E_204" type="standard_car" route="W_E" depart="240.0" />
    <vehicle id="W_E_205" type="standard_car" route="W_E" depart="240.0" />
    <vehicle id="W_E_206" type="standard_car" route="W_E" depart="241.0" />
    <vehicle id="W_E_207" type="standard_car" route="W_E" depart="241.0" />
    <vehicle id="W_E_208" type="standard_car" route="W_E" depart="242.0" />
    <vehicle id="W_E_209" type="standard_car" route="W_E" depart="242.0" />
    <vehicle id="E_W_210" type="standard_car" route="E_W" depart="243.0" />
    <vehicle id="W_N_211" type="standard_car" route="W_N" depart="244.0" />
    <vehicle id="W_E_212" type="standard_car" route="W_E" depart="244.0" />
    <vehicle id="W_E_213" type="standard_car" route="W_E" depart="246.0" />
    <vehicle id="W_E_214" type="standard_car" route="W_E" depart="247.0" />
    <vehicle id="W_E_215" type="standard_car" route="W_E" depart="247.0" />
    <vehicle id="E_W_216" type="standard_car" route="E_W" depart="248.0" />
    <vehicle id="S_N_217" type="standard_car" route="S_N" depart="249.0" />
    <vehicle id="E_N_218" type="standard_car" route="E_N" depart="249.0" />
    <vehicle id="E_W_219" type="standard_car" route="E_W" depart="250.0" />
    <vehicle id="W_E_220" type="standard_car" route="W_E" depart="252.0" />
    <vehicle id="W_N_221" type="standard_car" route="W_N" depart="252.0" />
    <vehicle id="W_E_222" type="standard_car" route="W_E" depart="252.0" />
    <vehicle id="S_N_223" type="standard_car" route="S_N" depart="253.0" />
    <vehicle id="E_W_224" type="standard_car" route="E_W" depart="254.0" />
    <vehicle id="E_W_225" type="standard_car" route="E_W" depart="255.0" />
    <vehicle id="W_N_226" type="standard_car" route="W_N" depart="255.0" />
    <vehicle id="W_S_227" type="standard_car" route="W_S" depart="256.0" />
    <vehicle id="W_E_228" type="standard_car" route="W_E" depart="257.0" />
    <vehicle id="W_E_229" type="standard_car" route="W_E" depart="257.0" />
    <vehicle id="W_E_230" type="standard_car" route="W_E" depart="258.0" />
    <vehicle id="E_W_231" type="standard_car" route="E_W" depart="258.0" />
    <vehicle id="E_S_232" type="standard_car" route="E_S" depart="259.0" />
    <vehicle id="E_W_233" type="standard_car" route="E_W" depart="260.0" />
    <vehicle id="E_W_234" type="standard_car" route="E_W" depart="261.0" />
    <vehicle id="E_W_235" type="standard_car" route="E_W" depart="261.0" />
    <vehicle id="E_W_236" type="standard_car" route="E_W" depart="261.0" />
    <vehicle id="S_N_237" type="standard_car" route="S_N" depart="262.0" />
    <vehicle id="W_E_238" type="standard_car" route="W_E" depart="262.0" />
    <vehicle id="W_S_239" type="standard_car" route="W_S" depart="262.0" />
    <vehicle id="E_W_240" type="standard_car" route="E_W" depart="263.0" />
    <vehicle id="W_S_241" type="standard_car" route="W_S" depart="264.0" />
    <vehicle id="E_W_242" type="standard_car" route="E_W" depart="265.0" />
    <vehicle id="E_W_243" type="standard_car" route="E_W" depart="265.0" />
    <vehicle id="W_E_244" type="standard_car" route="W_E" depart="266.0" />
    <vehicle id="E_W_245" type="standard_car" route="E_W" depart="266.0" />
    <vehicle id="W_E_246" type="standard_car" route="W_E" depart="266.0" />
    <vehicle id="W_E_247" type="standard_car" route="W_E" depart="267.0" />
    <vehicle id="W_S_248" type="standard_car" route="W_S" depart="267.0" />
    <vehicle id="W_N_249" type="standard_car" route="W_N" depart="269.0" />
    <vehicle id="E_S_250" type="standard_car" route="E_S" depart="270.0" />
    <vehicle id="E_W_251" type="standard_car" route="E_W" depart="272.0" />
    <vehicle id="W_N_252" type="standard_car" route="W_N" depart="276.0" />
    <vehicle id="W_E_253" type="standard_car" route="W_E" depart="276.0" />
    <vehicle id="W_E_254" type="standard_car" route="W_E" depart="276.0" />
    <vehicle id="E_W_255" type="standard_car" route="E_W" depart="278.0" />
    <vehicle id="E_W_256" type="standard_car" route="E_W" depart="278.0" />
    <vehicle id="E_W_257" type="standard_car" route="E_W" depart="278.0" />
    <vehicle id="W_E_258" type="standard_car" route="W_E" depart="278.0" />
    <vehicle id="E_W_259" type="standard_car" route="E_W" depart="280.0" />
    <vehicle id="E_W_260" type="standard_car" route="E_W" depart="280.0" />
    <vehicle id="W_S_261" type="standard_car" route="W_S" depart="281.0" />
    <vehicle id="W_E_262" type="standard_car" route="W_E" depart="281.0" />
    <vehicle id="E_W_263" type="standard_car" route="E_W" depart="281.0" />
    <vehicle id="W_E_264" type="standard_car" route="W_E" depart="282.0" />
    <vehicle id="W_E_265" type="standard_car" route="W_E" depart="282.0" />
    <vehicle id="W_E_266" type="standard_car" route="W_E" depart="283.0" />
    <vehicle id="W_E_267" type="standard_car" route="W_E" depart="283.0" />
    <vehicle id="E_W_268" type="standard_car" route="E_W" depart="284.0" />
    <vehicle id="W_E_269" type="standard_car" route="W_E" depart="286.0" />
    <vehicle id="W_S_270" type="standard_car" route="W_S" depart="287.0" />
    <vehicle id="W_E_271" type="standard_car" route="W_E" depart="287.0" />
    <vehicle id="E_W_272" type="standard_car" route="E_W" depart="287.0" />
    <vehicle id="W_N_273" type="standard_car" route="W_N" depart="287.0" />
    <vehicle id="S_N_274" type="standard_car" route="S_N" depart="288.0" />
    <vehicle id="E_S_275" type="standard_car" route="E_S" depart="288.0" />
    <vehicle id="W_E_276" type="standard_car" route="W_E" depart="288.0" />
    <vehicle id="E_W_277" type="standard_car" route="E_W" depart="289.0" />
    <vehicle id="E_W_278" type="standard_car" route="E_W" depart="289.0" />
    <vehicle id="E_S_279" type="standard_car" route="E_S" depart="289.0" />
    <vehicle id="E_W_280" type="standard_car" route="E_W" depart="289.0" />
    <vehicle id="W_S_281" type="standard_car" route="W_S" depart="289.0" />
    <vehicle id="W_E_282" type="standard_car" route="W_E" depart="290.0" />
    <vehicle id="S_N_283" type="standard_car" route="S_N" depart="290.0" />
    <vehicle id="W_E_284" type="standard_car" route="W_E" depart="290.0" />
    <vehicle id="W_S_285" type="standard_car" route="W_S" depart="292.0" />
    <vehicle id="W_E_286" type="standard_car" route="W_E" depart="292.0" />
    <vehicle id="W_E_287" type="standard_car" route="W_E" depart="292.0" />
    <vehicle id="N_S_288" type="standard_car" route="N_S" depart="292.0" />
    <vehicle id="E_W_289" type="standard_car" route="E_W" depart="292.0" />
    <vehicle id="E_S_290" type="standard_car" route="E_S" depart="293.0" />
    <vehicle id="W_E_291" type="standard_car" route="W_E" depart="293.0" />
    <vehicle id="E_W_292" type="standard_car" route="E_W" depart="293.0" />
    <vehicle id="E_N_293" type="standard_car" route="E_N" depart="294.0" />
    <vehicle id="W_E_294" type="standard_car" route="W_E" depart="294.0" />
    <vehicle id="N_S_295" type="standard_car" route="N_S" depart="295.0" />
    <vehicle id="W_E_296" type="standard_car" route="W_E" depart="295.0" />
    <vehicle id="W_E_297" type="standard_car" route="W_E" depart="295.0" />
    <vehicle id="E_W_298" type="standard_car" route="E_W" depart="295.0" />
    <vehicle id="W_E_299" type="standard_car" route="W_E" depart="295.0" />
    <vehicle id="W_N_300" type="standard_car" route="W_N" depart="296.0" />
    <vehicle id="N_S_301" type="standard_car" route="N_S" depart="296.0" />
    <vehicle id="E_W_302" type="standard_car" route="E_W" depart="296.0" />
    <vehicle id="E_W_303" type="standard_car" route="E_W" depart="297.0" />
    <vehicle id="W_E_304" type="standard_car" route="W_E" depart="297.0" />
    <vehicle id="W_E_305" type="standard_car" route="W_E" depart="298.0" />
    <vehicle id="E_W_306" type="standard_car" route="E_W" depart="298.0" />
    <vehicle id="W_S_307" type="standard_car" route="W_S" depart="298.0" />
    <vehicle id="E_W_308" type="standard_car" route="E_W" depart="298.0" />
    <vehicle id="W_E_309" type="standard_car" route="W_E" depart="299.0" />
    <vehicle id="E_W_310" type="standard_car" route="E_W" depart="299.0" />
    <vehicle id="N_S_311" type="standard_car" route="N_S" depart="300.0" />
    <vehicle id="W_E_312" type="standard_car" route="W_E" depart="300.0" />
    <vehicle id="W_E_313" type="standard_car" route="W_E" depart="300.0" />
    <vehicle id="E_W_314" type="standard_car" route="E_W" depart="301.0" />
    <vehicle id="S_E_315" type="standard_car" route="N_E" depart="302.0" />
    <vehicle id="W_E_316" type="standard_car" route="W_E" depart="302.0" />
    <vehicle id="W_E_317" type="standard_car" route="W_E" depart="302.0" />
    <vehicle id="W_S_318" type="standard_car" route="W_S" depart="303.0" />
    <vehicle id="W_E_319" type="standard_car" route="W_E" depart="303.0" />
    <vehicle id="W_E_320" type="standard_car" route="W_E" depart="303.0" />
    <vehicle id="W_S_321" type="standard_car" route="W_S" depart="303.0" />
    <vehicle id="E_N_322" type="standard_car" route="E_N" depart="304.0" />
    <vehicle id="W_E_323" type="standard_car" route="W_E" depart="304.0" />
    <vehicle id="W_E_324" type="standard_car" route="W_E" depart="305.0" />
    <vehicle id="W_E_325" type="standard_car" route="W_E" depart="306.0" />
    <vehicle id="E_S_326" type="standard_car" route="E_S" depart="307.0" />
    <vehicle id="E_W_327" type="standard_car" route="E_W" depart="307.0" />
    <vehicle id="W_E_328" type="standard_car" route="W_E" depart="307.0" />
    <vehicle id="W_E_329" type="standard_car" route="W_E" depart="308.0" />
    <vehicle id="W_E_330" type="standard_car" route="W_E" depart="308.0" />
    <vehicle id="E_W_331" type="standard_car" route="E_W" depart="308.0" />
    <vehicle id="W_E_332" type="standard_car" route="W_E" depart="309.0" />
    <vehicle id="E_W_333" type="standard_car" route="E_W" depart="310.0" />
    <vehicle id="W_S_334" type="standard_car" route="W_S" depart="311.0" />
    <vehicle id="E_W_335" type="standard_car" route="E_W" depart="311.0" />
    <vehicle id="E_S_336" type="standard_car" route="E_S" depart="311.0" />
    <vehicle id="N_W_337" type="standard_car" route="N_W" depart="311.0" />
    <vehicle id="W_E_338" type="standard_car" route="W_E" depart="311.0" />
    <vehicle id="W_E_339" type="standard_car" route="W_E" depart="311.0" />
    <vehicle id="W_S_340" type="standard_car" route="W_S" depart="313.0" />
    <vehicle id="W_E_341" type="standard_car" route="W_E" depart="313.0" />
    <vehicle id="W_E_342" type="standard_car" route="W_E" depart="314.0" />
    <vehicle id="E_S_343" type="standard_car" route="E_S" depart="314.0" />
    <vehicle id="E_W_344" type="standard_car" route="E_W" depart="315.0" />
    <vehicle id="E_W_345" type="standard_car" route="E_W" depart="315.0" />
    <vehicle id="W_S_346" type="standard_car" route="W_S" depart="315.0" />
    <vehicle id="E_W_347" type="standard_car" route="E_W" depart="315.0" />
    <vehicle id="E_W_348" type="standard_car" route="E_W" depart="316.0" />
    <vehicle id="W_S_349" type="standard_car" route="W_S" depart="316.0" />
    <vehicle id="E_W_350" type="standard_car" route="E_W" depart="316.0" />
    <vehicle id="W_E_351" type="standard_car" route="W_E" depart="316.0" />
    <vehicle id="E_W_352" type="standard_car" route="E_W" depart="317.0" />
    <vehicle id="E_S_353" type="standard_car" route="E_S" depart="317.0" />
    <vehicle id="S_W_354" type="standard_car" route="S_W" depart="317.0" />
    <vehicle id="W_S_355" type="standard_car" route="W_S" depart="317.0" />
    <vehicle id="E_S_356" type="standard_car" route="E_S" depart="318.0" />
    <vehicle id="E_W_357" type="standard_car" route="E_W" depart="318.0" />
    <vehicle id="N_S_358" type="standard_car" route="N_S" depart="318.0" />
    <vehicle id="W_N_359" type="standard_car" route="W_N" depart="318.0" />
    <vehicle id="E_W_360" type="standard_car" route="E_W" depart="318.0" />
    <vehicle id="W_S_361" type="standard_car" route="W_S" depart="318.0" />
    <vehicle id="E_N_362" type="standard_car" route="E_N" depart="318.0" />
    <vehicle id="W_S_363" type="standard_car" route="W_S" depart="319.0" />
    <vehicle id="W_E_364" type="standard_car" route="W_E" depart="319.0" />
    <vehicle id="W_E_365" type="standard_car" route="W_E" depart="319.0" />
    <vehicle id="W_E_366" type="standard_car" route="W_E" depart="319.0" />
    <vehicle id="W_E_367" type="standard_car" route="W_E" depart="320.0" />
    <vehicle id="W_N_368" type="standard_car" route="W_N" depart="320.0" />
    <vehicle id="N_E_369" type="standard_car" route="N_E" depart="320.0" />
    <vehicle id="E_W_370" type="standard_car" route="E_W" depart="322.0" />
    <vehicle id="E_S_371" type="standard_car" route="E_S" depart="322.0" />
    <vehicle id="E_W_372" type="standard_car" route="E_W" depart="322.0" />
    <vehicle id="E_S_373" type="standard_car" route="E_S" depart="322.0" />
    <vehicle id="E_W_374" type="standard_car" route="E_W" depart="324.0" />
    <vehicle id="E_W_375" type="standard_car" route="E_W" depart="325.0" />
    <vehicle id="W_E_376" type="standard_car" route="W_E" depart="326.0" />
    <vehicle id="E_W_377" type="standard_car" route="E_W" depart="326.0" />
    <vehicle id="W_E_378" type="standard_car" route="W_E" depart="327.0" />
    <vehicle id="E_W_379" type="standard_car" route="E_W" depart="327.0" />
    <vehicle id="W_E_380" type="standard_car" route="W_E" depart="327.0" />
    <vehicle id="W_N_381" type="standard_car" route="W_N" depart="329.0" />
    <vehicle id="W_S_382" type="standard_car" route="W_S" depart="329.0" />
    <vehicle id="E_W_383" type="standard_car" route="E_W" depart="329.0" />
    <vehicle id="E_W_384" type="standard_car" route="E_W" depart="330.0" />
    <vehicle id="W_E_385" type="standard_car" route="W_E" depart="331.0" />
    <vehicle id="E_W_386" type="standard_car" route="E_W" depart="332.0" />
    <vehicle id="E_W_387" type="standard_car" route="E_W" depart="332.0" />