<routes>
    <vType accel="1.0" decel="4.5" id="standard_car" length="5.0" minGap="2.5" maxSpeed="25" sigma="0.5" />

    <route id="W_N" edges="W2TL TL2N"/>
    <route id="W_E" edges="W2TL TL2E"/>
    <route id="W_S" edges="W2TL TL2S"/>
    <route id="N_W" edges="N2TL TL2W"/>
    <route id="N_E" edges="N2TL TL2E"/>
    <route id="N_S" edges="N2TL TL2S"/>
    <route id="E_W" edges="E2TL TL2W"/>
    <route id="E_N" edges="E2TL TL2N"/>
    <route id="E_S" edges="E2TL TL2S"/>
    <route id="S_W" edges="S2TL TL2W"/>
    <route id="S_N" edges="S2TL TL2N"/>
    <route id="S_E" edges="S2TL TL2E"/>
    <vehicle id="W_S_0" type="standard_car" route="W_S" depart="14.0" />
    <vehicle id="W_E_1" type="standard_car" route="W_E" depart="40.0" />
    <vehicle id="W_E_2" type="standard_car" route="W_E" depart="41.0" />
    <vehicle id="W_E_3" type="standard_car" route="W_E" depart="56.0" />
    <vehicle id="W_S_4" type="standard_car" route="W_S" depart="58.0" />
    <vehicle id="W_E_5" type="standard_car" route="W_E" depart="59.0" />
    <vehicle id="E_W_6" type="standard_car" route="E_W" depart="60.0" />
    <vehicle id="W_E_7" type="standard_car" route="W_E" depart="62.0" />
    <vehicle id="E_W_8" type="standard_car" route="E_W" depart="63.0" />
    <vehicle id="W_N_9" type="standard_car" route="W_N" depart="66.0" />
    <vehicle id="E_W_10" type="standard_car" route="E_W" depart="71.0" />
    <vehicle id="E_W_11" type="standard_car" route="E_W" depart="75.0" />
    <vehicle id="E_W_12" type="standard_car" route="E_W" depart="75.0" />
    <vehicle id="E_W_13" type="standard_car" route="E_W" depart="83.0" />
    <vehicle id="W_E_14" type="standard_car" route="W_E" depart="86.0" />
    <vehicle id="E_W_15" type="standard_car" route="E_W" depart="96.0" />
    <vehicle id="W_E_16" type="standard_car" route="W_E" depart="96.0" />
    <vehicle id="E_W_17" type="standard_car" route="E_W" depart="98.0" />
    <vehicle id="W_E_18" type="standard_car" route="W_E" depart="100.0" />
    <vehicle id="E_W_19" type="standard_car" route="E_W" depart="103.0" />
    <vehicle id="S_E_20" type="standard_car" route="N_E" depart="106.0" />
    <vehicle id="E_W_21" type="standard_car" route="E_W" depart="108.0" />
    <vehicle id="N_S_22" type="standard_car" route="N_S" depart="109.0" />
    <vehicle id="E_W_23" type="standard_car" route="E_W" depart="111.0" />
    <vehicle id="S_N_24" type="standard_car" route="S_N" depart="113.0" />
    <vehicle id="E_N_25" type="standard_car" route="E_N" depart="115.0" />
    <vehicle id="W_E_26" type="standard_car" route="W_E" depart="119.0" />
    <vehicle id="W_E_27" type="standard_car" route="W_E" depart="119.0" />
    <vehicle id="N_W_28" type="standard_car" route="N_W" depart="119.0" />
    <vehicle id="E_W_29" type="standard_car" route="E_W" depart="119.0" />
    <vehicle id="S_N_30" type="standard_car" route="S_N" depart="125.0" />
    <vehicle id="W_N_31" type="standard_car" route="W_N" depart="125.0" />
    <vehicle id="W_E_32" type="standard_car" route="W_E" depart="129.0" />
    <vehicle id="W_E_33" type="standard_car" route="W_E" depart="131.0" />
    <vehicle id="W_N_34" type="standard_car" route="W_N" depart="132.0" />
    <vehicle id="E_S_35" type="standard_car" route="E_S" depart="134.0" />
    <vehicle id="W_S_36" type="standard_car" route="W_S" depart="135.0" />
    <vehicle id="W_E_37" type="standard_car" route="W_E" depart="136.0" />
    <vehicle id="N_S_38" type="standard_car" route="N_S" depart="136.0" />
    <vehicle id="E_W_39" type="standard_car" route="E_W" depart="137.0" />
    <vehicle id="E_W_40" type="standard_car" route="E_W" depart="138.0" />
    <vehicle id="W_E_41" type="standard_car" route="W_E" depart="139.0" />
    <vehicle id="W_E_42" type="standard_car" route="W_E" depart="145.0" />
    <vehicle id="W_S_43" type="standard_car" route="W_S" depart="145.0" />
    <vehicle id="W_E_44" type="standard_car" route="W_E" depart="147.0" />
    <vehicle id="W_E_45" type="standard_car" route="W_E" depart="149.0" />
    <vehicle id="W_E_46" type="standard_car" route="W_E" depart="153.0" />
    <vehicle id="W_E_47" type="standard_car" route="W_E" depart="153.0" />
    <vehicle id="E_S_48" type="standard_car" route="E_S" depart="155.0" />
    <vehicle id="W_E_49" type="standard_car" route="W_E" depart="157.0" />
    <vehicle id="W_E_50" type="standard_car" route="W_E" depart="157.0" />
    <vehicle id="W_E_51" type="standard_car" route="W_E" depart="158.0" />
    <vehicle id="N_S_52" type="standard_car" route="N_S" depart="159.0" />
    <vehicle id="W_N_53" type="standard_car" route="W_N" depart="159.0" />
    <vehicle id="W_E_54" type="standard_car" route="W_E" depart="165.0" />
    <vehicle id="W_N_55" type="standard_car" route="W_N" depart="165.0" />
    <vehicle id="W_N_56" type="standard_car" route="W_N" depart="166.0" />
    <vehicle id="S_N_57" type="standard_car" route="S_N" depart="168.0" />
    <vehicle id="E_N_58" type="standard_car" route="E_N" depart="170.0" />
    <vehicle id="E_W_59" type="standard_car" route="E_W" depart="173.0" />
    <vehicle id="E_W_60" type="standard_car" route="E_W" depart="174.0" />
    <vehicle id="W_N_61" type="standard_car" route="W_N" depart="174.0" />
    <vehicle id="W_E_62" type="standard_car" route="W_E" depart="176.0" />
    <vehicle id="E_N_63" type="standard_car" route="E_N" depart="178.0" />
    <vehicle id="W_E_64" type="standard_car" route="W_E" depart="179.0" />
    <vehicle id="N_E_65" type="standard_car" route="N_E" depart="180.0" />
    <vehicle id="E_W_66" type="standard_car" route="E_W" depart="181.0" />
    <vehicle id="W_S_67" type="standard_car" route="W_S" depart="183.0" />
    <vehicle id="W_S_68" type="standard_car" route="W_S" depart="183.0" />
    <vehicle id="W_N_69" type="standard_car" route="W_N" depart="184.0" />
    <vehicle id="W_E_70" type="standard_car" route="W_E" depart="186.0" />
    <vehicle id="W_E_71" type="standard_car" route="W_E" depart="187.0" />
    <vehicle id="W_N_72" type="standard_car" route="W_N" depart="187.0" />
    <vehicle id="W_N_73" type="standard_car" route="W_N" depart="188.0" />
    <vehicle id="W_E_74" type="standard_car" route="W_E" depart="190.0" />
    <vehicle id="W_S_75" type="standard_car" route="W_S" depart="190.0" />
    <vehicle id="W_E_76" type="standard_car" route="W_E" depart="190.0" />
    <vehicle id="E_W_77" type="standard_car" route="E_W" depart="190.0" />
    <vehicle id="E_W_78" type="standard_car" route="E_W" depart="192.0" />
    <vehicle id="W_N_79" type="standard_car" route="W_N" depart="194.0" />
    <vehicle id="E_W_80" type="standard_car" route="E_W" depart="194.0" />
    <vehicle id="E_W_81" type="standard_car" route="E_W" depart="194.0" />
    <vehicle id="W_E_82" type="standard_car" route="W_E" depart="195.0" />
    <vehicle id="W_S_83" type="standard_car" route="W_S" depart="197.0" />
    <vehicle id="W_E_84" type="standard_car" route="W_E" depart="198.0" />
    <vehicle id="W_E_85" type="standard_car" route="W_E" depart="198.0" />
    <vehicle id="E_W_86" type="standard_car" route="E_W" depart="200.0" />
    <vehicle id="E_W_87" type="standard_car" route="E_W" depart="200.0" />
    <vehicle id="E_W_88" type="standard_car" route="E_W" depart="203.0" />
    <vehicle id="E_W_89" type="standard_car" route="E_W" depart="205.0" />
    <vehicle id="E_W_90" type="standard_car" route="E_W" depart="206.0" />
    <vehicle id="S_N_91" type="standard_car" route="S_N" depart="209.0" />
    <vehicle id="W_E_92" type="standard_car" route="W_E" depart="210.0" />
    <vehicle id="W_N_93" type="standard_car" route="W_N" depart="212.0" />
    <vehicle id="E_N_94" type="standard_car" route="E_N" depart="213.0" />
    <vehicle id="W_E_95" type="standard_car" route="W_E" depart="214.0" />
    <vehicle id="W_E_96" type="standard_car" route="W_E" depart="214.0" />
    <vehicle id="E_W_97" type="standard_car" route="E_W" depart="214.0" />
    <vehicle id="W_E_98" type="standard_car" route="W_E" depart="215.0" />
    <vehicle id="E_W_99" type="standard_car" route="E_W" depart="217.0" />
    <vehicle id="W_E_100" type="standard_car" route="W_E" depart="218.0" />
    <vehicle id="E_W_101" type="standard_car" route="E_W" depart="218.0" />
    <vehicle id="W_E_102" type="standard_car" route="W_E" depart="221.0" />
    <vehicle id="W_N_103" type="standard_car" route="W_N" depart="222.0" />
    <vehicle id="E_W_104" type="standard_car" route="E_W" depart="222.0" />
    <vehicle id="E_W_105" type="standard_car" route="E_W" depart="227.0" />
    <vehicle id="W_E_106" type="standard_car" route="W_E" depart="228.0" />
    <vehicle id="E_S_107" type="standard_car" route="E_S" depart="229.0" />
    <vehicle id="W_E_108" type="standard_car" route="W_E" depart="230.0" />
    <vehicle id="E_W_109" type="standard_car" route="E_W" depart="231.0" />
    <vehicle id="W_E_110" type="standard_car" route="W_E" depart="232.0" />
    <vehicle id="S_N_111" type="standard_car" route="S_N" depart="233.0" />
    <vehicle id="S_N_112" type="standard_car" route="S_N" depart="236.0" />
    <vehicle id="E_W_113" type="standard_car" route="E_W" depart="236.0" />
    <vehicle id="E_W_114" type="standard_car" route="E_W" depart="236.0" />
    <vehicle id="E_W_115" type="standard_car" route="E_W" depart="239.0" />
    <vehicle id="E_W_116" type="standard_car" route="E_W" depart="239.0" />
    <vehicle id="E_N_117" type="standard_car" route="E_N" depart="242.0" />
    <vehicle id="W_S_118" type="standard_car" route="W_S" depart="243.0" />
    <vehicle id="W_E_119" type="standard_car" route="W_E" depart="244.0" />
    <vehicle id="W_E_120" type="standard_car" route="W_E" depart="245.0" />
    <vehicle id="N_S_121" type="standard_car" route="N_S" depart="245.0" />
    <vehicle id="E_N_122" type="standard_car" route="E_N" depart="246.0" />
    <vehicle id="E_S_123" type="standard_car" route="E_S" depart="246.0" />
    <vehicle id="N_S_124" type="standard_car" route="N_S" depart="246.0" />
    <vehicle id="E_W_125" type="standard_car" route="E_W" depart="247.0" />
    <vehicle id="E_W_126" type="standard_car" route="E_W" depart="247.0" />
    <vehicle id="W_E_127" type="standard_car" route="W_E" depart="247.0" />
    <vehicle id="E_W_128" type="standard_car" route="E_W" depart="248.0" />
    <vehicle id="E_N_129" type="standard_car" route="E_N" depart="248.0" />
    <vehicle id="S_N_130" type="standard_car" route="S_N" depart="248.0" />
    <vehicle id="W_E_131" type="standard_car" route="W_E" depart="248.0" />
    <vehicle id="W_E_132" type="standard_car" route="W_E" depart="249.0" />
    <vehicle id="W_N_133" type="standard_car" route="W_N" depart="249.0" />
    <vehicle id="W_E_134" type="standard_car" route="W_E" depart="251.0" />
    <vehicle id="W_E_135" type="standard_car" route="W_E" depart="253.0" />
    <vehicle id="E_S_136" type="standard_car" route="E_S" depart="254.0" />
    <vehicle id="E_W_137" type="standard_car" route="E_W" depart="255.0" />
    <vehicle id="W_E_138" type="standard_car" route="W_E" depart="255.0" />
    <vehicle id="W_E_139" type="standard_car" route="W_E" depart="255.0" />
    <vehicle id="S_N_140" type="standard_car" route="S_N" depart="255.0" />
    <vehicle id="W_E_141" type="standard_car" route="W_E" depart="256.0" />
    <vehicle id="E_N_142" type="standard_car" route="E_N" depart="258.0" />
    <vehicle id="W_E_143" type="standard_car" route="W_E" depart="260.0" />
    <vehicle id="E_W_144" type="standard_car" route="E_W" depart="260.0" />
    <vehicle id="E_N_145" type="standard_car" route="E_N" depart="261.0" />
    <vehicle id="W_E_146" type="standard_car" route="W_E" depart="263.0" />
    <vehicle id="N_S_147" type="standard_car" route="N_S" depart="264.0" />
    <vehicle id="E_W_148" type="standard_car" route="E_W" depart="267.0" />
    <vehicle id="E_W_149" type="standard_car" route="E_W" depart="267.0" />
    <vehicle id="N_S_150" type="standard_car" route="N_S" depart="268.0" />
    <vehicle id="W_E_151" type="standard_car" route="W_E" depart="268.0" />
    <vehicle id="E_W_152" type="standard_car" route="E_W" depart="270.0" />
    <vehicle id="W_E_153" type="standard_car" route="W_E" depart="270.0" />
    <vehicle id="W_E_154" type="standard_car" route="W_E" depart="271.0" />
    <vehicle id="E_N_155" type="standard_car" route="E_N" depart="271.0" />
    <vehicle id="E_W_156" type="standard_car" route="E_W" depart="272.0" />
    <vehicle id="W_E_157" type="standard_car" route="W_E" depart="272.0" />
    <vehicle id="E_W_158" type="standard_car" route="E_W" depart="272.0" />
    <vehicle id="E_N_159" type="standard_car" route="E_N" depart="273.0" />
    <vehicle id="E_W_160" type="standard_car" route="E_W" depart="274.0" />
    <vehicle id="S_N_161" type="standard_car" route="S_N" depart="277.0" />
    <vehicle id="W_N_162" type="standard_car" route="W_N" depart="277.0" />
    <vehicle id="W_N_163" type="standard_car" route="W_N" depart="277.0" />
    <vehicle id="W_N_164" type="standard_car" route="W_N" depart="279.0" />
    <vehicle id="E_W_165" type="standard_car" route="E_W" depart="280.0" />
    <vehicle id="W_E_166" type="standard_car" route="W_E" depart="280.0" />
    <vehicle id="W_E_167" type="standard_car" route="W_E" depart="281.0" />
    <vehicle id="E_W_168" type="standard_car" route="E_W" depart="282.0" />
    <vehicle id="W_E_169" type="standard_car" route="W_E" depart="283.0" />
    <vehicle id="N_S_170" type="standard_car" route="N_S" depart="283.0" />
    <vehicle id="E_W_171" type="standard_car" route="E_W" depart="284.0" />
    <vehicle id="W_E_172" type="standard_car" route="W_E" depart="288.0" />
    <vehicle id="W_E_173" type="standard_car" route="W_E" depart="289.0" />
    <vehicle id="W_E_174" type="standard_car" route="W_E" depart="289.0" />
    <vehicle id="N_S_175" type="standard_car" route="N_S" depart="291.0" />
    <vehicle id="W_E_176" type="standard_car" route="W_E" depart="292.0" />
    <vehicle id="W_E_177" type="standard_car" route="W_E" depart="292.0" />
    <vehicle id="W_E_178" type="standard_car" route="W_E" depart="294.0" />
    <vehicle id="E_W_179" type="standard_car" route="E_W" depart="294.0" />
    <vehicle id="E_W_180" type="standard_car" route="E_W" depart="297.0" />
    <vehicle id="W_N_181" type="standard_car" route="W_N" depart="299.0" />
    <vehicle id="E_W_182" type="standard_car" route="E_W" depart="299.0" />
    <vehicle id="E_W_183" type="standard_car" route="E_W" depart="301.0" />
    <vehicle id="W_E_184" type="standard_car" route="W_E" depart="303.0" />
    <vehicle id="E_N_185" type="standard_car" route="E_N" depart="304.0" />
    <vehicle id="S_N_186" type="standard_car" route="S_N" depart="308.0" />
    <vehicle id="W_N_187" type="standard_car" route="W_N" depart="309.0" />
    <vehicle id="E_W_188" type="standard_car" route="E_W" depart="309.0" />
    <vehicle id="W_E_189" type="standard_car" route="W_E" depart="309.0" />
    <vehicle id="W_E_190" type="standard_car" route="W_E" depart="310.0" />
    <vehicle id="W_E_191" type="standard_car" route="W_E" depart="311.0" />
    <vehicle id="E_W_192" type="standard_car" route="E_W" depart="312.0" />
    <vehicle id="N_S_193" type="standard_car" route="N_S" depart="312.0" />
    <vehicle id="W_E_194" type="standard_car" route="W_E" depart="312.0" />
    <vehicle id="W_N_195" type="standard_car" route="W_N" depart="312.0" />
    <vehicle id="E_W_196" type="standard_car" route="E_W" depart="313.0" />
    <vehicle id="E_W_197" type="standard_car" route="E_W" depart="314.0" />
    <vehicle id="W_E_198" type="standard_car" route="W_E" depart="315.0" />
    <vehicle id="W_E_199" type="standard_car" route="W_E" depart="315.0" />
    <vehicle id="E_W_200" type="standard_car" route="E_W" depart="315.0" />
    <vehicle id="E_W_201" type="standard_car" route="E_W" depart="315.0" />
    <vehicle id="W_E_202" type="standard_car" route="W_E" depart="315.0" />
    <vehicle id="W_E_203" type="standard_car" route="W_E" depart="315.0" />
    <vehicle id="W_E_204" type="standard_car" route="W_E" depart="316.0" />
    <vehicle id="E_W_205" type="standard_car" route="E_W" depart="317.0" />
    <vehicle id="N_S_206" type="standard_car" route="N_S" depart="318.0" />
    <vehicle id="E_S_207" type="standard_car" route="E_S" depart="318.0" />
    <vehicle id="N_S_208" type="standard_car" route="N_S" depart="319.0" />
    <vehicle id="E_W_209" type="standard_car" route="E_W" depart="319.0" />
    <vehicle id="W_E_210" type="standard_car" route="W_E" depart="319.0" />
    <vehicle id="E_W_211" type="standard_car" route="E_W" depart="320.0" />
    <vehicle id="W_E_212" type="standard_car" route="W_E" depart="321.0" />
    <vehicle id="W_E_213" type="standard_car" route="W_E" depart="322.0" />
    <vehicle id="W_E_214" type="standard_car" route="W_E" depart="322.0" />
    <vehicle id="E_W_215" type="standard_car" route="E_W" depart="323.0" />
    <vehicle id="E_N_216" type="standard_car" route="E_N" depart="324.0" />
    <vehicle id="E_W_217" type="standard_car" route="E_W" depart="325.0" />
    <vehicle id="S_W_218" type="standard_car" route="S_W" depart="326.0" />
    <vehicle id="E_S_219" type="standard_car" route="E_S" depart="330.0" />
    <vehicle id="W_E_220" type="standard_car" route="W_E" depart="330.0" />
    <vehicle id="N_S_221" type="standard_car" route="N_S" depart="330.0" />
    <vehicle id="E_W_222" type="standard_car" route="E_W" depart="331.0" />
    <vehicle id="W_E_223" type="standard_car" route="W_E" depart="331.0" />
    <vehicle id="E_W_224" type="standard_car" route="E_W" depart="331.0" />
    <vehicle id="E_S_225" type="standard_car" route="E_S" depart="331.0" />
    <vehicle id="W_E_226" type="standard_car" route="W_E" depart="332.0" />
    <vehicle id="W_E_227" type="standard_car" route="W_E" depart="332.0" />
    <vehicle id="W_E_228" type="standard_car" route="W_E" depart="333.0" />
    <vehicle id="E_N_229" type="standard_car" route="E_N" depart="334.0" />
    <vehicle id="E_W_230" type="standard_car" route="E_W" depart="334.0" />
    <vehicle id="E_W_231" type="standard_car" route="E_W" depart="335.0" />
    <vehicle id="W_E_232" type="standard_car" route="W_E" depart="335.0" />
    <vehicle id="E_W_233" type="standard_car" route="E_W" depart="335.0" />
    <vehicle id="E_S_234" type="standard_car" route="E_S" depart="335.0" />
    <vehicle id="W_E_235" type="standard_car" route="W_E" depart="337.0" />
    <vehicle id="N_S_236" type="standard_car" route="N_S" depart="337.0" />
    <vehicle id="W_N_237" type="standard_car" route="W_N" depart="338.0" />
    <vehicle id="E_S_238" type="standard_car" route="E_S" depart="339.0" />
    <vehicle id="S_W_239" type="standard_car" route="S_W" depart="339.0" />
    <vehicle id="N_S_240" type="standard_car" route="N_S" depart="339.0" />
    <vehicle id="E_W_241" type="standard_car" route="E_W" depart="341.0" />
    <vehicle id="W_E_242" type="standard_car" route="W_E" depart="341.0" />
    <vehicle id="E_W_243" type="standard_car" route="E_W" depart="342.0" />
    <vehicle id="W_N_244" type="standard_car" route="W_N" depart="342.0" />
    <vehicle id="E_S_245" type="standard_car" route="E_S" depart="343.0" />
    <vehicle id="E_S_246" type="standard_car" route="E_S" depart="344.0" />
    <vehicle id="W_E_247" type="standard_car" route="W_E" depart="344.0" />
    <vehicle id="W_E_248" type="standard_car" route="W_E" depart="345.0" />
    <vehicle id="E_W_249" type="standard_car" route="E_W" depart="346.0" />
    <vehicle id="W_E_250" type="standard_car" route="W_E" depart="348.0" />
    <vehicle id="S_N_251" type="standard_car" route="S_N" depart="349.0" />
    <vehicle id="E_W_252" type="standard_car" route="E_W" depart="350.0" />
    <vehicle id="E_W_253" type="standard_car" route="E_W" depart="350.0" />
    <vehicle id="W_S_254" type="standard_car" route="W_S" depart="350.0" />
    <vehicle id="W_E_255" type="standard_car" route="W_E" depart="350.0" />
    <vehicle id="E_W_256" type="standard_car" route="E_W" depart="351.0" />
    <vehicle id="W_E_257" type="standard_car" route="W_E" depart="351.0" />
    <vehicle id="E_W_258" type="standard_car" route="E_W" depart="352.0" />
    <vehicle id="W_E_259" type="standard_car" route="W_E" depart="352.0" />
    <vehicle id="E_W_260" type="standard_car" route="E_W" depart="354.0" />
    <vehicle id="E_W_261" type="standard_car" route="E_W" depart="355.0" />
    <vehicle id="W_E_262" type="standard_car" route="W_E" depart="356.0" />
    <vehicle id="N_S_263" type="standard_car" route="N_S" depart="356.0" />
    <vehicle id="W_E_264" type="standard_car" route="W_E" depart="357.0" />
    <vehicle id="E_S_265" type="standard_car" route="E_S" depart="358.0" />
    <vehicle id="E_W_266" type="standard_car" route="E_W" depart="359.0" />
    <vehicle id="E_N_267" type="standard_car" route="E_N" depart="360.0" />
    <vehicle id="W_E_268" type="standard_car" route="W_E" depart="360.0" />
    <vehicle id="E_W_269" type="standard_car" route="E_W" depart="361.0" />
    <vehicle id="E_W_270" type="standard_car" route="E_W" depart="361.0" />
    <vehicle id="W_E_271" type="standard_car" route="W_E" depart="362.0" />
    <vehicle id="S_N_272" type="standard_car" route="S_N" depart="362.0" />
    <vehicle id="E_N_273" type="standard_car" route="E_N" depart="363.0" />
    <vehicle id="E_S_274" type="standard_car" route="E_S" depart="365.0" />
    <vehicle id="E_W_275" type="standard_car" route="E_W" depart="365.0" />
    <vehicle id="E_N_276" type="standard_car" route="E_N" depart="367.0" />
    <vehicle id="E_W_277" type="standard_car" route="E_W" depart="367.0" />
    <vehicle id="E_W_278" type="standard_car" route="E_W" depart="367.0" />
    <vehicle id="E_N_279" type="standard_car" route="E_N" depart="367.0" />
    <vehicle id="W_E_280" type="standard_car" route="W_E" depart="367.0" />
    <vehicle id="W_N_281" type="standard_car" route="W_N" depart="368.0" />
    <vehicle id="W_E_282" type="standard_car" route="W_E" depart="369.0" />
    <vehicle id="S_E_283" type="standard_car" route="N_E" depart="370.0" />
    <vehicle id="W_E_284" type="standard_car" route="W_E" depart="370.0" />
    <vehicle id="W_E_285" type="standard_car" route="W_E" depart="371.0" />
    <vehicle id="W_E_286" type="standard_car" route="W_E" depart="372.0" />
    <vehicle id="E_W_287" type="standard_car" route="E_W" depart="372.0" />
    <vehicle id="W_E_288" type="standard_car" route="W_E" depart="372.0" />
    <vehicle id="W_E_289" type="standard_car" route="W_E" depart="373.0" />
    <vehicle id="W_E_290" type="standard_car" route="W_E" depart="374.0" />
    <vehicle id="W_N_291" type="standard_car" route="W_N" depart="375.0" />
    <vehicle id="W_E_292" type="standard_car" route="W_E" depart="376.0" />
    <vehicle id="E_W_293" type="standard_car" route="E_W" depart="376.0" />
    <vehicle id="E_W_294" type="standard_car" route="E_W" depart="377.0" />
    <vehicle id="E_W_295" type="standard_car" route="E_W" depart="378.0" />
    <vehicle id="E_W_296" type="standard_car" route="E_W" depart="378.0" />
    <vehicle id="E_N_297" type="standard_car" route="E_N" depart="379.0" />
    <vehicle id="E_W_298" type="standard_car" route="E_W" depart="381.0" />
    <vehicle id="E_W_299" type="standard_car" route="E_W" depart="381.0" />
    <vehicle id="W_E_300" type="standard_car" route="W_E" depart="382.0" />
    <vehicle id="N_S_301" type="standard_car" route="N_S" depart="382.0" />
    <vehicle id="E_W_302" type="standard_car" route="E_W" depart="383.0" />
    <vehicle id="E_W_303" type="standard_car" route="E_W" depart="383.0" />
    <vehicle id="W_E_304" type="standard_car" route="W_E" depart="384.0" />
    <vehicle id="W_E_305" type="standard_car" route="W_E" depart="384.0" />
    <vehicle id="E_W_306" type="standard_car" route="E_W" depart="385.0" />
    <vehicle id="W_E_307" type="standard_car" route="W_E" depart="386.0" />
    <vehicle id="N_S_308" type="standard_car" route="N_S" depart="388.0" />
    <vehicle id="W_E_309" type="standard_car" route="W_E" depart="388.0" />
    <vehicle id="S_N_310" type="standard_car" route="S_N" depart="388.0" />
    <vehicle id="W_E_311" type="standard_car" route="W_E" depart="388.0" />
    <vehicle id="E_W_312" type="standard_car" route="E_W" depart="388.0" />
    <vehicle id="E_W_313" type="standard_car" route="E_W" depart="388.0" />
    <vehicle id="E_W_314" type="standard_car" route="E_W" depart="388.0" />
    <vehicle id="W_E_315" type="standard_car" route="W_E" depart="389.0" />
    <vehicle id="E_S_316" type="standard_car" route="E_S" depart="389.0" />
    <vehicle id="E_W_317" type="standard_car" route="E_W" depart="390.0" />
    <vehicle id="W_E_318" type="standard_car" route="W_E" depart="391.0" />
    <vehicle id="E_W_319" type="standard_car" route="E_W" depart="391.0" />
    <vehicle id="E_W_320" type="standard_car" route="E_W" depart="392.0" />
    <vehicle id="E_W_321" type="standard_car" route="E_W" depart="392.0" />
    <vehicle id="E_W_322" type="standard_car" route="E_W" depart="394.0" />
    <vehicle id="W_E_323" type="standard_car" route="W_E" depart="396.0" />
    <vehicle id="E_N_324" type="standard_car" route="E_N" depart="397.0" />
    <vehicle id="S_W_325" type="standard_car" route="S_W" depart="397.0" />
    <vehicle id="W_E_326" type="standard_car" route="W_E" depart="397.0" />
    <vehicle id="E_W_327" type="standard_car" route="E_W" depart="397.0" />
    <vehicle id="W_E_328" type="standard_car" route="W_E" depart="397.0" />
    <vehicle id="W_E_329" type="standard_car" route="W_E" depart="398.0" />
    <vehicle id="E_S_330" type="standard_car" route="E_S" depart="399.0" />
    <vehicle id="W_E_331" type="standard_car" route="W_E" depart="400.0" />
    <vehicle id="W_E_332" type="standard_car" route="W_E" depart="400.0" />
    <vehicle id="W_E_333" type="standard_car" route="W_E" depart="401.0" />
    <vehicle id="E_W_334" type="standard_car" route="E_W" depart="402.0" />
    <vehicle id="E_W_335" type="standard_car" route="E_W" depart="402.0" />
    <vehicle id="W_E_336" type="standard_car" route="W_E" depart="403.0" />
    <vehicle id="W_E_337" type="standard_car" route="W_E" depart="405.0" />
    <vehicle id="E_W_338" type="standard_car" route="E_W" depart="407.0" />
    <vehicle id="W_N_339" type="standard_car" route="W_N" depart="407.0" />
    <vehicle id="W_E_340" type="standard_car" route="W_E" depart="408.0" />
    <vehicle id="E_W_341" type="standard_car" route="E_W" depart="408.0" />
    <vehicle id="W_E_342" type="standard_car" route="W_E" depart="408.0" />
    <vehicle id="E_W_343" type="standard_car" route="E_W" depart="410.0" />
    <vehicle id="W_E_344" type="standard_car" route="W_E" depart="411.0" />
    <vehicle id="S_W_345" type="standard_car" route="S_W" depart="412.0" />
    <vehicle id="E_W_346" type="standard_car" route="E_W" depart="415.0" />
    <vehicle id="W_E_347" type="standard_car" route="W_E" depart="416.0" />
    <vehicle id="W_S_348" type="standard_car" route="W_S" depart="417.0" />
    <vehicle id="E_W_349" type="standard_car" route="E_W" depart="418.0" />
    <vehicle id="E_W_350" type="standard_car" route="E_W" depart="418.0" />
    <vehicle id="W_E_351" type="standard_car" route="W_E" depart="420.0" />
    <vehicle id="W_E_352" type="standard_car" route="W_E" depart="421.0" />
    <vehicle id="E_W_353" type="standard_car" route="E_W" depart="421.0" />
    <vehicle id="W_E_354" type="standard_car" route="W_E" depart="422.0" />
    <vehicle id="W_S_355" type="standard_car" route="W_S" depart="423.0" />
    <vehicle id="S_N_356" type="standard_car" route="S_N" depart="424.0" />
    <vehicle id="E_S_357" type="standard_car" route="E_S" depart="425.0" />
    <vehicle id="W_E_358" type="standard_car" route="W_E" depart="425.0" />
    <vehicle id="N_S_359" type="standard_car" route="N_S" depart="425.0" />
    <vehicle id="W_N_360" type="standard_car" route="W_N" depart="427.0" />
    <vehicle id="W_E_361" type="standard_car" route="W_E" depart="428.0" />
    <vehicle id="W_E_362" type="standard_car" route="W_E" depart="428.0" />
    <vehicle id="W_E_363" type="standard_car" route="W_E" depart="429.0" />
    <vehicle id="S_N_364" type="standard_car" route="S_N" depart="431.0" />
    <vehicle id="E_N_365" type="standard_car" route="E_N" depart="432.0" />
    <vehicle id="E_N_366" type="standard_car" route="E_N" depart="433.0" />
    <vehicle id="E_W_367" type="standard_car" route="E_W" depart="433.0" />
    <vehicle id="N_S_368" type="standard_car" route="N_S" depart="433.0" />
    <vehicle id="E_W_369" type="standard_car" route="E_W" depart="434.0" />
    <vehicle id="E_W_370" type="standard_car" route="E_W" depart="434.0" />
    <vehicle id="E_W_371" type="standard_car" route="E_W" depart="435.0" />
    <vehicle id="E_W_372" type="standard_car" route="E_W" depart="435.0" />
    <vehicle id="W_E_373" type="standard_car" route="W_E" depart="436.0" />
    <vehicle id="W_E_374" type="standard_car" route="W_E" depart="437.0" />
    <vehicle id="S_N_375" type="standard_car" route="S_N" depart="438.0" />
    <vehicle id="W_S_376" type="standard_car" route="W_S" depart="439.0" />
    <vehicle id="W_N_377" type="standard_car" route="W_N" depart="440.0" />
    <vehicle id="W_E_378" type="standard_car" route="W_E" depart="441.0" />
    <vehicle id="E_W_379" type="standard_car" route="E_W" depart="441.0" />
    <vehicle id="W_E_380" type="standard_car" route="W_E" depart="441.0" />
    <vehicle id="E_W_381" type="standard_car" route="E_W" depart="442.0" />
    <vehicle id="E_S_382" type="standard_car" route="E_S" depart="443.0" />
    <vehicle id="W_E_383" type="standard_car" route="W_E" depart="443.0" />
    <vehicle id="S_N_384" type="standard_car" route="S_N" depart="443.0" />
    <vehicle id="E_W_385" type="standard_car" route="E_W" depart="443.0" />
    <vehicle id="W_E_386" type="standard_car" route="W_E" depart="443.0" />
    <vehicle id="W_E_387" type="standard_car" route="W_E" depart="444.0" />