<routes>
    <vType accel="1.0" decel="4.5" id="standard_car" length="5.0" minGap="2.5" maxSpeed="25" sigma="0.5" />

    <route id="W_N" edges="W2TL TL2N"/>
    <route id="W_E" edges="W2TL TL2E"/>
    <route id="W_S" edges="W2TL TL2S"/>
    <route id="N_W" edges="N2TL TL2W"/>
    <route id="N_E" edges="N2TL TL2E"/>
    <route id="N_S" edges="N2TL TL2S"/>
    <route id="E_W" edges="E2TL TL2W"/>
    <route id="E_N" edges="E2TL TL2N"/>
    <route id="E_S" edges="E2TL TL2S"/>
    <route id="S_W" edges="S2TL TL2W"/>
    <route id="S_N" edges="S2TL TL2N"/>
    <route id="S_E" edges="S2TL TL2E"/>    <vehicle id="N_E_0" type="standard_car" route="N_E" depart="19.0" />    <vehicle id="E_W_1" type="standard_car" route="E_W" depart="33.0" />    <vehicle id="E_N_2" type="standard_car" route="E_N" depart="33.0" />    <vehicle id="E_W_3" type="standard_car" route="E_W" depart="34.0" />    <vehicle id="W_S_4" type="standard_car" route="W_S" depart="38.0" />    <vehicle id="W_E_5" type="standard_car" route="W_E" depart="44.0" />    <vehicle id="E_W_6" type="standard_car" route="E_W" depart="57.0" />    <vehicle id="W_E_7" type="standard_car" route="W_E" depart="64.0" />    <vehicle id="N_S_8" type="standard_car" route="N_S" depart="64.0" />    <vehicle id="W_N_9" type="standard_car" route="W_N" depart="66.0" />    <vehicle id="W_E_10" type="standard_car" route="W_E" depart="68.0" />    <vehicle id="E_W_11" type="standard_car" route="E_W" depart="73.0" />    <vehicle id="E_W_12" type="standard_car" route="E_W" depart="73.0" />    <vehicle id="E_W_13" type="standard_car" route="E_W" depart="77.0" />    <vehicle id="W_E_14" type="standard_car" route="W_E" depart="78.0" />    <vehicle id="W_E_15" type="standard_car" route="W_E" depart="86.0" />    <vehicle id="E_W_16" type="standard_car" route="E_W" depart="88.0" />    <vehicle id="W_E_17" type="standard_car" route="W_E" depart="93.0" />    <vehicle id="E_W_18" type="standard_car" route="E_W" depart="94.0" />    <vehicle id="W_N_19" type="standard_car" route="W_N" depart="96.0" />    <vehicle id="E_W_20" type="standard_car" route="E_W" depart="96.0" />    <vehicle id="W_E_21" type="standard_car" route="W_E" depart="102.0" />    <vehicle id="E_W_22" type="standard_car" route="E_W" depart="104.0" />    <vehicle id="W_E_23" type="standard_car" route="W_E" depart="106.0" />    <vehicle id="W_E_24" type="standard_car" route="W_E" depart="107.0" />    <vehicle id="W_E_25" type="standard_car" route="W_E" depart="108.0" />    <vehicle id="E_W_26" type="standard_car" route="E_W" depart="111.0" />    <vehicle id="W_E_27" type="standard_car" route="W_E" depart="112.0" />    <vehicle id="W_E_28" type="standard_car" route="W_E" depart="113.0" />    <vehicle id="N_S_29" type="standard_car" route="N_S" depart="115.0" />    <vehicle id="E_W_30" type="standard_car" route="E_W" depart="118.0" />    <vehicle id="W_N_31" type="standard_car" route="W_N" depart="120.0" />    <vehicle id="W_E_32" type="standard_car" route="W_E" depart="121.0" />    <vehicle id="W_E_33" type="standard_car" route="W_E" depart="122.0" />    <vehicle id="W_E_34" type="standard_car" route="W_E" depart="124.0" />    <vehicle id="E_W_35" type="standard_car" route="E_W" depart="124.0" />    <vehicle id="E_W_36" type="standard_car" route="E_W" depart="131.0" />    <vehicle id="E_W_37" type="standard_car" route="E_W" depart="131.0" />    <vehicle id="W_E_38" type="standard_car" route="W_E" depart="132.0" />    <vehicle id="N_S_39" type="standard_car" route="N_S" depart="133.0" />    <vehicle id="N_E_40" type="standard_car" route="N_E" depart="134.0" />    <vehicle id="E_W_41" type="standard_car" route="E_W" depart="135.0" />    <vehicle id="E_W_42" type="standard_car" route="E_W" depart="139.0" />    <vehicle id="E_W_43" type="standard_car" route="E_W" depart="143.0" />    <vehicle id="W_N_44" type="standard_car" route="W_N" depart="143.0" />    <vehicle id="W_E_45" type="standard_car" route="W_E" depart="145.0" />    <vehicle id="W_E_46" type="standard_car" route="W_E" depart="145.0" />    <vehicle id="W_E_47" type="standard_car" route="W_E" depart="145.0" />    <vehicle id="W_E_48" type="standard_car" route="W_E" depart="145.0" />    <vehicle id="E_N_49" type="standard_car" route="E_N" depart="148.0" />    <vehicle id="W_S_50" type="standard_car" route="W_S" depart="148.0" />    <vehicle id="W_E_51" type="standard_car" route="W_E" depart="149.0" />    <vehicle id="E_W_52" type="standard_car" route="E_W" depart="151.0" />    <vehicle id="W_E_53" type="standard_car" route="W_E" depart="152.0" />    <vehicle id="W_E_54" type="standard_car" route="W_E" depart="153.0" />    <vehicle id="E_W_55" type="standard_car" route="E_W" depart="158.0" />    <vehicle id="E_W_56" type="standard_car" route="E_W" depart="158.0" />    <vehicle id="E_S_57" type="standard_car" route="E_S" depart="159.0" />    <vehicle id="W_E_58" type="standard_car" route="W_E" depart="160.0" />    <vehicle id="W_S_59" type="standard_car" route="W_S" depart="161.0" />    <vehicle id="E_W_60" type="standard_car" route="E_W" depart="163.0" />    <vehicle id="E_W_61" type="standard_car" route="E_W" depart="163.0" />    <vehicle id="W_E_62" type="standard_car" route="W_E" depart="164.0" />    <vehicle id="E_W_63" type="standard_car" route="E_W" depart="165.0" />    <vehicle id="N_S_64" type="standard_car" route="N_S" depart="165.0" />    <vehicle id="E_N_65" type="standard_car" route="E_N" depart="165.0" />    <vehicle id="W_S_66" type="standard_car" route="W_S" depart="166.0" />    <vehicle id="E_W_67" type="standard_car" route="E_W" depart="167.0" />    <vehicle id="W_E_68" type="standard_car" route="W_E" depart="167.0" />    <vehicle id="S_N_69" type="standard_car" route="S_N" depart="168.0" />    <vehicle id="W_E_70" type="standard_car" route="W_E" depart="169.0" />    <vehicle id="E_W_71" type="standard_car" route="E_W" depart="170.0" />    <vehicle id="S_W_72" type="standard_car" route="S_W" depart="171.0" />    <vehicle id="W_E_73" type="standard_car" route="W_E" depart="171.0" />    <vehicle id="E_N_74" type="standard_car" route="E_N" depart="172.0" />    <vehicle id="S_N_75" type="standard_car" route="S_N" depart="172.0" />    <vehicle id="E_W_76" type="standard_car" route="E_W" depart="172.0" />    <vehicle id="W_E_77" type="standard_car" route="W_E" depart="176.0" />    <vehicle id="E_W_78" type="standard_car" route="E_W" depart="177.0" />    <vehicle id="W_E_79" type="standard_car" route="W_E" depart="178.0" />    <vehicle id="W_S_80" type="standard_car" route="W_S" depart="179.0" />    <vehicle id="E_N_81" type="standard_car" route="E_N" depart="182.0" />    <vehicle id="E_W_82" type="standard_car" route="E_W" depart="186.0" />    <vehicle id="W_N_83" type="standard_car" route="W_N" depart="186.0" />    <vehicle id="E_W_84" type="standard_car" route="E_W" depart="190.0" />    <vehicle id="E_N_85" type="standard_car" route="E_N" depart="191.0" />    <vehicle id="E_S_86" type="standard_car" route="E_S" depart="191.0" />    <vehicle id="W_E_87" type="standard_car" route="W_E" depart="192.0" />    <vehicle id="W_E_88" type="standard_car" route="W_E" depart="194.0" />    <vehicle id="W_E_89" type="standard_car" route="W_E" depart="194.0" />    <vehicle id="E_W_90" type="standard_car" route="E_W" depart="195.0" />    <vehicle id="W_E_91" type="standard_car" route="W_E" depart="196.0" />    <vehicle id="W_E_92" type="standard_car" route="W_E" depart="198.0" />    <vehicle id="N_S_93" type="standard_car" route="N_S" depart="199.0" />    <vehicle id="E_N_94" type="standard_car" route="E_N" depart="200.0" />    <vehicle id="W_E_95" type="standard_car" route="W_E" depart="200.0" />    <vehicle id="E_W_96" type="standard_car" route="E_W" depart="201.0" />    <vehicle id="W_E_97" type="standard_car" route="W_E" depart="202.0" />    <vehicle id="E_S_98" type="standard_car" route="E_S" depart="204.0" />    <vehicle id="E_N_99" type="standard_car" route="E_N" depart="204.0" />    <vehicle id="W_E_100" type="standard_car" route="W_E" depart="207.0" />    <vehicle id="W_E_101" type="standard_car" route="W_E" depart="207.0" />    <vehicle id="E_W_102" type="standard_car" route="E_W" depart="208.0" />    <vehicle id="E_W_103" type="standard_car" route="E_W" depart="208.0" />    <vehicle id="S_N_104" type="standard_car" route="S_N" depart="210.0" />    <vehicle id="E_S_105" type="standard_car" route="E_S" depart="211.0" />    <vehicle id="E_W_106" type="standard_car" route="E_W" depart="211.0" />    <vehicle id="W_N_107" type="standard_car" route="W_N" depart="212.0" />    <vehicle id="W_E_108" type="standard_car" route="W_E" depart="214.0" />    <vehicle id="W_N_109" type="standard_car" route="W_N" depart="214.0" />    <vehicle id="E_W_110" type="standard_car" route="E_W" depart="215.0" />    <vehicle id="W_E_111" type="standard_car" route="W_E" depart="216.0" />    <vehicle id="E_S_112" type="standard_car" route="E_S" depart="219.0" />    <vehicle id="W_E_113" type="standard_car" route="W_E" depart="220.0" />    <vehicle id="W_E_114" type="standard_car" route="W_E" depart="221.0" />    <vehicle id="W_E_115" type="standard_car" route="W_E" depart="221.0" />    <vehicle id="E_W_116" type="standard_car" route="E_W" depart="224.0" />    <vehicle id="E_W_117" type="standard_car" route="E_W" depart="227.0" />    <vehicle id="E_N_118" type="standard_car" route="E_N" depart="227.0" />    <vehicle id="W_S_119" type="standard_car" route="W_S" depart="228.0" />    <vehicle id="E_W_120" type="standard_car" route="E_W" depart="229.0" />    <vehicle id="E_W_121" type="standard_car" route="E_W" depart="231.0" />    <vehicle id="E_W_122" type="standard_car" route="E_W" depart="232.0" />    <vehicle id="N_S_123" type="standard_car" route="N_S" depart="232.0" />    <vehicle id="W_E_124" type="standard_car" route="W_E" depart="232.0" />    <vehicle id="W_E_125" type="standard_car" route="W_E" depart="233.0" />    <vehicle id="W_E_126" type="standard_car" route="W_E" depart="234.0" />    <vehicle id="E_W_127" type="standard_car" route="E_W" depart="235.0" />    <vehicle id="E_W_128" type="standard_car" route="E_W" depart="236.0" />    <vehicle id="W_E_129" type="standard_car" route="W_E" depart="236.0" />    <vehicle id="W_E_130" type="standard_car" route="W_E" depart="236.0" />    <vehicle id="E_W_131" type="standard_car" route="E_W" depart="236.0" />    <vehicle id="E_W_132" type="standard_car" route="E_W" depart="239.0" />    <vehicle id="E_W_133" type="standard_car" route="E_W" depart="240.0" />    <vehicle id="W_E_134" type="standard_car" route="W_E" depart="242.0" />    <vehicle id="E_W_135" type="standard_car" route="E_W" depart="242.0" />    <vehicle id="W_E_136" type="standard_car" route="W_E" depart="243.0" />    <vehicle id="E_W_137" type="standard_car" route="E_W" depart="244.0" />    <vehicle id="E_W_138" type="standard_car" route="E_W" depart="245.0" />    <vehicle id="N_S_139" type="standard_car" route="N_S" depart="245.0" />    <vehicle id="E_W_140" type="standard_car" route="E_W" depart="246.0" />    <vehicle id="E_W_141" type="standard_car" route="E_W" depart="248.0" />    <vehicle id="E_W_142" type="standard_car" route="E_W" depart="248.0" />    <vehicle id="W_S_143" type="standard_car" route="W_S" depart="250.0" />    <vehicle id="S_N_144" type="standard_car" route="S_N" depart="250.0" />    <vehicle id="E_W_145" type="standard_car" route="E_W" depart="250.0" />    <vehicle id="E_S_146" type="standard_car" route="E_S" depart="251.0" />    <vehicle id="S_W_147" type="standard_car" route="S_W" depart="252.0" />    <vehicle id="E_W_148" type="standard_car" route="E_W" depart="253.0" />    <vehicle id="E_W_149" type="standard_car" route="E_W" depart="255.0" />    <vehicle id="E_W_150" type="standard_car" route="E_W" depart="256.0" />    <vehicle id="E_N_151" type="standard_car" route="E_N" depart="256.0" />    <vehicle id="W_E_152" type="standard_car" route="W_E" depart="257.0" />    <vehicle id="W_E_153" type="standard_car" route="W_E" depart="257.0" />    <vehicle id="E_S_154" type="standard_car" route="E_S" depart="258.0" />    <vehicle id="S_N_155" type="standard_car" route="S_N" depart="259.0" />    <vehicle id="E_W_156" type="standard_car" route="E_W" depart="259.0" />    <vehicle id="W_E_157" type="standard_car" route="W_E" depart="261.0" />    <vehicle id="W_E_158" type="standard_car" route="W_E" depart="262.0" />    <vehicle id="W_E_159" type="standard_car" route="W_E" depart="263.0" />    <vehicle id="W_E_160" type="standard_car" route="W_E" depart="265.0" />    <vehicle id="E_W_161" type="standard_car" route="E_W" depart="265.0" />    <vehicle id="E_W_162" type="standard_car" route="E_W" depart="265.0" />    <vehicle id="W_S_163" type="standard_car" route="W_S" depart="266.0" />    <vehicle id="W_S_164" type="standard_car" route="W_S" depart="267.0" />    <vehicle id="E_N_165" type="standard_car" route="E_N" depart="269.0" />    <vehicle id="N_S_166" type="standard_car" route="N_S" depart="269.0" />    <vehicle id="E_N_167" type="standard_car" route="E_N" depart="270.0" />    <vehicle id="E_N_168" type="standard_car" route="E_N" depart="271.0" />    <vehicle id="E_S_169" type="standard_car" route="E_S" depart="272.0" />    <vehicle id="E_W_170" type="standard_car" route="E_W" depart="273.0" />    <vehicle id="W_E_171" type="standard_car" route="W_E" depart="274.0" />    <vehicle id="W_E_172" type="standard_car" route="W_E" depart="275.0" />    <vehicle id="W_E_173" type="standard_car" route="W_E" depart="275.0" />    <vehicle id="E_W_174" type="standard_car" route="E_W" depart="275.0" />    <vehicle id="W_E_175" type="standard_car" route="W_E" depart="278.0" />    <vehicle id="E_W_176" type="standard_car" route="E_W" depart="278.0" />    <vehicle id="E_S_177" type="standard_car" route="E_S" depart="279.0" />    <vehicle id="W_E_178" type="standard_car" route="W_E" depart="282.0" />    <vehicle id="W_E_179" type="standard_car" route="W_E" depart="282.0" />    <vehicle id="N_W_180" type="standard_car" route="N_W" depart="282.0" />    <vehicle id="W_E_181" type="standard_car" route="W_E" depart="282.0" />    <vehicle id="E_W_182" type="standard_car" route="E_W" depart="283.0" />    <vehicle id="E_W_183" type="standard_car" route="E_W" depart="283.0" />    <vehicle id="E_N_184" type="standard_car" route="E_N" depart="286.0" />    <vehicle id="E_W_185" type="standard_car" route="E_W" depart="286.0" />    <vehicle id="W_E_186" type="standard_car" route="W_E" depart="287.0" />    <vehicle id="E_W_187" type="standard_car" route="E_W" depart="287.0" />    <vehicle id="E_W_188" type="standard_car" route="E_W" depart="287.0" />    <vehicle id="W_S_189" type="standard_car" route="W_S" depart="287.0" />    <vehicle id="E_S_190" type="standard_car" route="E_S" depart="290.0" />    <vehicle id="E_W_191" type="standard_car" route="E_W" depart="290.0" />    <vehicle id="E_W_192" type="standard_car" route="E_W" depart="291.0" />    <vehicle id="W_E_193" type="standard_car" route="W_E" depart="292.0" />    <vehicle id="E_W_194" type="standard_car" route="E_W" depart="292.0" />    <vehicle id="W_E_195" type="standard_car" route="W_E" depart="293.0" />    <vehicle id="W_E_196" type="standard_car" route="W_E" depart="294.0" />    <vehicle id="E_W_197" type="standard_car" route="E_W" depart="296.0" />    <vehicle id="W_E_198" type="standard_car" route="W_E" depart="296.0" />    <vehicle id="W_E_199" type="standard_car" route="W_E" depart="297.0" />    <vehicle id="E_W_200" type="standard_car" route="E_W" depart="297.0" />    <vehicle id="W_E_201" type="standard_car" route="W_E" depart="297.0" />    <vehicle id="E_W_202" type="standard_car" route="E_W" depart="298.0" />    <vehicle id="W_N_203" type="standard_car" route="W_N" depart="298.0" />    <vehicle id="N_S_204" type="standard_car" route="N_S" depart="299.0" />    <vehicle id="W_E_205" type="standard_car" route="W_E" depart="299.0" />    <vehicle id="W_S_206" type="standard_car" route="W_S" depart="299.0" />    <vehicle id="N_E_207" type="standard_car" route="N_E" depart="300.0" />    <vehicle id="E_W_208" type="standard_car" route="E_W" depart="301.0" />    <vehicle id="S_N_209" type="standard_car" route="S_N" depart="301.0" />    <vehicle id="W_E_210" type="standard_car" route="W_E" depart="301.0" />    <vehicle id="E_W_211" type="standard_car" route="E_W" depart="302.0" />    <vehicle id="W_E_212" type="standard_car" route="W_E" depart="303.0" />    <vehicle id="E_W_213" type="standard_car" route="E_W" depart="306.0" />    <vehicle id="W_E_214" type="standard_car" route="W_E" depart="306.0" />    <vehicle id="W_E_215" type="standard_car" route="W_E" depart="306.0" />    <vehicle id="W_E_216" type="standard_car" route="W_E" depart="307.0" />    <vehicle id="W_E_217" type="standard_car" route="W_E" depart="307.0" />    <vehicle id="N_S_218" type="standard_car" route="N_S" depart="309.0" />    <vehicle id="E_W_219" type="standard_car" route="E_W" depart="311.0" />    <vehicle id="W_N_220" type="standard_car" route="W_N" depart="311.0" />    <vehicle id="N_S_221" type="standard_car" route="N_S" depart="312.0" />    <vehicle id="W_E_222" type="standard_car" route="W_E" depart="313.0" />    <vehicle id="W_E_223" type="standard_car" route="W_E" depart="313.0" />    <vehicle id="W_E_224" type="standard_car" route="W_E" depart="313.0" />    <vehicle id="E_N_225" type="standard_car" route="E_N" depart="314.0" />    <vehicle id="E_W_226" type="standard_car" route="E_W" depart="314.0" />    <vehicle id="E_W_227" type="standard_car" route="E_W" depart="316.0" />    <vehicle id="E_S_228" type="standard_car" route="E_S" depart="316.0" />    <vehicle id="E_W_229" type="standard_car" route="E_W" depart="316.0" />    <vehicle id="W_S_230" type="standard_car" route="W_S" depart="317.0" />    <vehicle id="W_E_231" type="standard_car" route="W_E" depart="318.0" />    <vehicle id="E_W_232" type="standard_car" route="E_W" depart="318.0" />    <vehicle id="E_S_233" type="standard_car" route="E_S" depart="318.0" />    <vehicle id="W_E_234" type="standard_car" route="W_E" depart="319.0" />    <vehicle id="W_E_235" type="standard_car" route="W_E" depart="320.0" />    <vehicle id="W_E_236" type="standard_car" route="W_E" depart="320.0" />    <vehicle id="W_E_237" type="standard_car" route="W_E" depart="321.0" />    <vehicle id="E_W_238" type="standard_car" route="E_W" depart="321.0" />    <vehicle id="W_S_239" type="standard_car" route="W_S" depart="321.0" />    <vehicle id="W_E_240" type="standard_car" route="W_E" depart="322.0" />    <vehicle id="W_E_241" type="standard_car" route="W_E" depart="323.0" />    <vehicle id="E_W_242" type="standard_car" route="E_W" depart="324.0" />    <vehicle id="E_S_243" type="standard_car" route="E_S" depart="327.0" />    <vehicle id="E_W_244" type="standard_car" route="E_W" depart="327.0" />    <vehicle id="W_E_245" type="standard_car" route="W_E" depart="329.0" />    <vehicle id="E_W_246" type="standard_car" route="E_W" depart="329.0" />    <vehicle id="W_N_247" type="standard_car" route="W_N" depart="331.0" />    <vehicle id="N_S_248" type="standard_car" route="N_S" depart="331.0" />    <vehicle id="W_E_249" type="standard_car" route="W_E" depart="331.0" />    <vehicle id="E_W_250" type="standard_car" route="E_W" depart="333.0" />    <vehicle id="E_W_251" type="standard_car" route="E_W" depart="333.0" />    <vehicle id="W_N_252" type="standard_car" route="W_N" depart="333.0" />    <vehicle id="W_E_253" type="standard_car" route="W_E" depart="334.0" />    <vehicle id="E_W_254" type="standard_car" route="E_W" depart="334.0" />    <vehicle id="W_E_255" type="standard_car" route="W_E" depart="335.0" />    <vehicle id="E_W_256" type="standard_car" route="E_W" depart="337.0" />    <vehicle id="E_W_257" type="standard_car" route="E_W" depart="337.0" />    <vehicle id="E_N_258" type="standard_car" route="E_N" depart="338.0" />    <vehicle id="E_W_259" type="standard_car" route="E_W" depart="339.0" />    <vehicle id="W_E_260" type="standard_car" route="W_E" depart="340.0" />    <vehicle id="W_S_261" type="standard_car" route="W_S" depart="341.0" />    <vehicle id="E_S_262" type="standard_car" route="E_S" depart="341.0" />    <vehicle id="W_E_263" type="standard_car" route="W_E" depart="344.0" />    <vehicle id="E_W_264" type="standard_car" route="E_W" depart="344.0" />    <vehicle id="N_S_265" type="standard_car" route="N_S" depart="344.0" />    <vehicle id="W_N_266" type="standard_car" route="W_N" depart="348.0" />    <vehicle id="W_E_267" type="standard_car" route="W_E" depart="348.0" />    <vehicle id="E_W_268" type="standard_car" route="E_W" depart="350.0" />    <vehicle id="E_S_269" type="standard_car" route="E_S" depart="350.0" />    <vehicle id="E_W_270" type="standard_car" route="E_W" depart="350.0" />    <vehicle id="S_N_271" type="standard_car" route="S_N" depart="350.0" />    <vehicle id="W_E_272" type="standard_car" route="W_E" depart="351.0" />    <vehicle id="W_E_273" type="standard_car" route="W_E" depart="352.0" />    <vehicle id="S_N_274" type="standard_car" route="S_N" depart="352.0" />    <vehicle id="E_W_275" type="standard_car" route="E_W" depart="352.0" />    <vehicle id="E_W_276" type="standard_car" route="E_W" depart="352.0" />    <vehicle id="W_E_277" type="standard_car" route="W_E" depart="352.0" />    <vehicle id="E_N_278" type="standard_car" route="E_N" depart="354.0" />    <vehicle id="W_E_279" type="standard_car" route="W_E" depart="354.0" />    <vehicle id="W_E_280" type="standard_car" route="W_E" depart="354.0" />    <vehicle id="E_W_281" type="standard_car" route="E_W" depart="356.0" />    <vehicle id="E_W_282" type="standard_car" route="E_W" depart="356.0" />    <vehicle id="E_W_283" type="standard_car" route="E_W" depart="356.0" />    <vehicle id="E_W_284" type="standard_car" route="E_W" depart="356.0" />    <vehicle id="S_W_285" type="standard_car" route="S_W" depart="357.0" />    <vehicle id="E_W_286" type="standard_car" route="E_W" depart="357.0" />    <vehicle id="E_W_287" type="standard_car" route="E_W" depart="358.0" />    <vehicle id="W_S_288" type="standard_car" route="W_S" depart="358.0" />    <vehicle id="E_S_289" type="standard_car" route="E_S" depart="360.0" />    <vehicle id="E_W_290" type="standard_car" route="E_W" depart="360.0" />    <vehicle id="W_E_291" type="standard_car" route="W_E" depart="360.0" />    <vehicle id="W_E_292" type="standard_car" route="W_E" depart="360.0" />    <vehicle id="W_E_293" type="standard_car" route="W_E" depart="360.0" />    <vehicle id="W_E_294" type="standard_car" route="W_E" depart="361.0" />    <vehicle id="E_W_295" type="standard_car" route="E_W" depart="363.0" />    <vehicle id="E_W_296" type="standard_car" route="E_W" depart="363.0" />    <vehicle id="E_W_297" type="standard_car" route="E_W" depart="365.0" />    <vehicle id="W_E_298" type="standard_car" route="W_E" depart="366.0" />    <vehicle id="N_S_299" type="standard_car" route="N_S" depart="366.0" />    <vehicle id="E_W_300" type="standard_car" route="E_W" depart="367.0" />    <vehicle id="W_E_301" type="standard_car" route="W_E" depart="368.0" />    <vehicle id="W_S_302" type="standard_car" route="W_S" depart="369.0" />    <vehicle id="W_E_303" type="standard_car" route="W_E" depart="370.0" />    <vehicle id="E_W_304" type="standard_car" route="E_W" depart="370.0" />    <vehicle id="W_E_305" type="standard_car" route="W_E" depart="370.0" />    <vehicle id="W_E_306" type="standard_car" route="W_E" depart="371.0" />    <vehicle id="E_S_307" type="standard_car" route="E_S" depart="371.0" />    <vehicle id="W_S_308" type="standard_car" route="W_S" depart="372.0" />    <vehicle id="E_W_309" type="standard_car" route="E_W" depart="372.0" />    <vehicle id="N_E_310" type="standard_car" route="N_E" depart="372.0" />    <vehicle id="E_W_311" type="standard_car" route="E_W" depart="372.0" />    <vehicle id="W_N_312" type="standard_car" route="W_N" depart="373.0" />    <vehicle id="W_E_313" type="standard_car" route="W_E" depart="374.0" />    <vehicle id="E_W_314" type="standard_car" route="E_W" depart="374.0" />    <vehicle id="W_E_315" type="standard_car" route="W_E" depart="375.0" />    <vehicle id="E_W_316" type="standard_car" route="E_W" depart="376.0" />    <vehicle id="E_S_317" type="standard_car" route="E_S" depart="376.0" />    <vehicle id="W_S_318" type="standard_car" route="W_S" depart="377.0" />    <vehicle id="W_E_319" type="standard_car" route="W_E" depart="377.0" />    <vehicle id="E_W_320" type="standard_car" route="E_W" depart="378.0" />    <vehicle id="E_S_321" type="standard_car" route="E_S" depart="379.0" />    <vehicle id="E_W_322" type="standard_car" route="E_W" depart="379.0" />    <vehicle id="E_W_323" type="standard_car" route="E_W" depart="380.0" />    <vehicle id="E_W_324" type="standard_car" route="E_W" depart="382.0" />    <vehicle id="E_W_325" type="standard_car" route="E_W" depart="384.0" />    <vehicle id="E_S_326" type="standard_car" route="E_S" depart="384.0" />    <vehicle id="W_E_327" type="standard_car" route="W_E" depart="385.0" />    <vehicle id="W_N_328" type="standard_car" route="W_N" depart="386.0" />    <vehicle id="W_N_329" type="standard_car" route="W_N" depart="387.0" />    <vehicle id="E_N_330" type="standard_car" route="E_N" depart="388.0" />    <vehicle id="E_W_331" type="standard_car" route="E_W" depart="389.0" />    <vehicle id="W_E_332" type="standard_car" route="W_E" depart="390.0" />    <vehicle id="W_S_333" type="standard_car" route="W_S" depart="390.0" />    <vehicle id="W_E_334" type="standard_car" route="W_E" depart="390.0" />    <vehicle id="W_E_335" type="standard_car" route="W_E" depart="391.0" />    <vehicle id="E_W_336" type="standard_car" route="E_W" depart="392.0" />    <vehicle id="E_N_337" type="standard_car" route="E_N" depart="393.0" />    <vehicle id="W_E_338" type="standard_car" route="W_E" depart="394.0" />    <vehicle id="E_W_339" type="standard_car" route="E_W" depart="394.0" />    <vehicle id="W_N_340" type="standard_car" route="W_N" depart="396.0" />    <vehicle id="W_N_341" type="standard_car" route="W_N" depart="396.0" />    <vehicle id="W_N_342" type="standard_car" route="W_N" depart="398.0" />    <vehicle id="E_W_343" type="standard_car" route="E_W" depart="400.0" />    <vehicle id="W_N_344" type="standard_car" route="W_N" depart="401.0" />    <vehicle id="E_W_345" type="standard_car" route="E_W" depart="401.0" />    <vehicle id="E_W_346" type="standard_car" route="E_W" depart="402.0" />    <vehicle id="N_S_347" type="standard_car" route="N_S" depart="403.0" />    <vehicle id="W_E_348" type="standard_car" route="W_E" depart="404.0" />    <vehicle id="E_N_349" type="standard_car" route="E_N" depart="404.0" />    <vehicle id="W_E_350" type="standard_car" route="W_E" depart="405.0" />    <vehicle id="W_E_351" type="standard_car" route="W_E" depart="405.0" />    <vehicle id="E_W_352" type="standard_car" route="E_W" depart="405.0" />    <vehicle id="E_W_353" type="standard_car" route="E_W" depart="405.0" />    <vehicle id="W_N_354" type="standard_car" route="W_N" depart="406.0" />    <vehicle id="W_E_355" type="standard_car" route="W_E" depart="407.0" />    <vehicle id="S_N_356" type="standard_car" route="S_N" depart="408.0" />    <vehicle id="E_W_357" type="standard_car" route="E_W" depart="408.0" />    <vehicle id="W_E_358" type="standard_car" route="W_E" depart="410.0" />    <vehicle id="E_W_359" type="standard_car" route="E_W" depart="411.0" />    <vehicle id="W_E_360" type="standard_car" route="W_E" depart="411.0" />    <vehicle id="S_N_361" type="standard_car" route="S_N" depart="412.0" />    <vehicle id="E_W_362" type="standard_car" route="E_W" depart="412.0" />    <vehicle id="E_W_363" type="standard_car" route="E_W" depart="412.0" />    <vehicle id="S_W_364" type="standard_car" route="S_W" depart="413.0" />    <vehicle id="W_E_365" type="standard_car" route="W_E" depart="413.0" />    <vehicle id="W_E_366" type="standard_car" route="W_E" depart="413.0" />    <vehicle id="E_W_367" type="standard_car" route="E_W" depart="414.0" />    <vehicle id="E_W_368" type="standard_car" route="E_W" depart="414.0" />    <vehicle id="E_W_369" type="standard_car" route="E_W" depart="414.0" />    <vehicle id="W_E_370" type="standard_car" route="W_E" depart="415.0" />    <vehicle id="E_W_371" type="standard_car" route="E_W" depart="415.0" />    <vehicle id="W_E_372" type="standard_car" route="W_E" depart="417.0" />    <vehicle id="E_S_373" type="standard_car" route="E_S" depart="420.0" />    <vehicle id="E_W_374" type="standard_car" route="E_W" depart="420.0" />    <vehicle id="W_E_375" type="standard_car" route="W_E" depart="421.0" />    <vehicle id="E_W_376" type="standard_car" route="E_W" depart="421.0" />    <vehicle id="S_E_377" type="standard_car" route="N_E" depart="422.0" />    <vehicle id="N_S_378" type="standard_car" route="N_S" depart="423.0" />    <vehicle id="W_E_379" type="standard_car" route="W_E" depart="423.0" />    <vehicle id="E_S_380" type="standard_car" route="E_S" depart="423.0" />    <vehicle id="E_S_381" type="standard_car" route="E_S" depart="424.0" />    <vehicle id="W_E_382" type="standard_car" route="W_E" depart="425.0" />    <vehicle id="W_E_383" type="standard_car" route="W_E" depart="426.0" />    <vehicle id="W_E_384" type="standard_car" route="W_E" depart="427.0" />    <vehicle id="W_E_385" type="standard_car" route="W_E" depart="427.0" />    <vehicle id="W_N_386" type="standard_car" route="W_N" depart="428.0" />    <vehicle id="E_W_387" type="standard_car" route="E_W" depart="431.0" />    <vehicle id="W_E_388" type="standard_car" route="W_E" depart="432.0" />    <vehicle id="E_W_389" type="standard_car" route="E_W" depart="432.0" />    <vehicle id="W_E_390" type="standard_car" route="W_E" depart="433.0" />    <vehicle id="E_W_391" type="standard_car" route="E_W" depart="433.0" />    <vehicle id="W_E_392" type="standard_car" route="W_E" depart="433.0" />    <vehicle id="E_W_393" type="standard_car" route="E_W" d