<routes>
    <vType accel="1.0" decel="4.5" id="standard_car" length="5.0" minGap="2.5" maxSpeed="25" sigma="0.5" />

    <route id="W_N" edges="W2TL TL2N"/>
    <route id="W_E" edges="W2TL TL2E"/>
    <route id="W_S" edges="W2TL TL2S"/>
    <route id="N_W" edges="N2TL TL2W"/>
    <route id="N_E" edges="N2TL TL2E"/>
    <route id="N_S" edges="N2TL TL2S"/>
    <route id="E_W" edges="E2TL TL2W"/>
    <route id="E_N" edges="E2TL TL2N"/>
    <route id="E_S" edges="E2TL TL2S"/>
    <route id="S_W" edges="S2TL TL2W"/>
    <route id="S_N" edges="S2TL TL2N"/>
    <route id="S_E" edges="S2TL TL2E"/>    <vehicle id="W_S_0" type="standard_car" route="W_S" depart="19.0" />    <vehicle id="S_N_1" type="standard_car" route="S_N" depart="33.0" />    <vehicle id="S_W_2" type="standard_car" route="S_W" depart="33.0" />    <vehicle id="S_N_3" type="standard_car" route="S_N" depart="34.0" />    <vehicle id="N_E_4" type="standard_car" route="N_E" depart="38.0" />    <vehicle id="N_S_5" type="standard_car" route="N_S" depart="44.0" />    <vehicle id="S_N_6" type="standard_car" route="S_N" depart="57.0" />    <vehicle id="N_S_7" type="standard_car" route="N_S" depart="64.0" />    <vehicle id="W_E_8" type="standard_car" route="W_E" depart="64.0" />    <vehicle id="N_W_9" type="standard_car" route="N_W" depart="66.0" />    <vehicle id="N_S_10" type="standard_car" route="N_S" depart="68.0" />    <vehicle id="S_N_11" type="standard_car" route="S_N" depart="73.0" />    <vehicle id="S_N_12" type="standard_car" route="S_N" depart="73.0" />    <vehicle id="S_N_13" type="standard_car" route="S_N" depart="77.0" />    <vehicle id="N_S_14" type="standard_car" route="N_S" depart="78.0" />    <vehicle id="N_S_15" type="standard_car" route="N_S" depart="86.0" />    <vehicle id="S_N_16" type="standard_car" route="S_N" depart="88.0" />    <vehicle id="N_S_17" type="standard_car" route="N_S" depart="93.0" />    <vehicle id="S_N_18" type="standard_car" route="S_N" depart="94.0" />    <vehicle id="N_W_19" type="standard_car" route="N_W" depart="96.0" />    <vehicle id="S_N_20" type="standard_car" route="S_N" depart="96.0" />    <vehicle id="N_S_21" type="standard_car" route="N_S" depart="102.0" />    <vehicle id="S_N_22" type="standard_car" route="S_N" depart="104.0" />    <vehicle id="N_S_23" type="standard_car" route="N_S" depart="106.0" />    <vehicle id="N_S_24" type="standard_car" route="N_S" depart="107.0" />    <vehicle id="N_S_25" type="standard_car" route="N_S" depart="108.0" />    <vehicle id="S_N_26" type="standard_car" route="S_N" depart="111.0" />    <vehicle id="N_S_27" type="standard_car" route="N_S" depart="112.0" />    <vehicle id="N_S_28" type="standard_car" route="N_S" depart="113.0" />    <vehicle id="W_E_29" type="standard_car" route="W_E" depart="115.0" />    <vehicle id="S_N_30" type="standard_car" route="S_N" depart="118.0" />    <vehicle id="N_W_31" type="standard_car" route="N_W" depart="120.0" />    <vehicle id="N_S_32" type="standard_car" route="N_S" depart="121.0" />    <vehicle id="N_S_33" type="standard_car" route="N_S" depart="122.0" />    <vehicle id="N_S_34" type="standard_car" route="N_S" depart="124.0" />    <vehicle id="S_N_35" type="standard_car" route="S_N" depart="124.0" />    <vehicle id="S_N_36" type="standard_car" route="S_N" depart="131.0" />    <vehicle id="S_N_37" type="standard_car" route="S_N" depart="131.0" />    <vehicle id="N_S_38" type="standard_car" route="N_S" depart="132.0" />    <vehicle id="W_E_39" type="standard_car" route="W_E" depart="133.0" />    <vehicle id="W_S_40" type="standard_car" route="W_S" depart="134.0" />    <vehicle id="S_N_41" type="standard_car" route="S_N" depart="135.0" />    <vehicle id="S_N_42" type="standard_car" route="S_N" depart="139.0" />    <vehicle id="S_N_43" type="standard_car" route="S_N" depart="143.0" />    <vehicle id="N_W_44" type="standard_car" route="N_W" depart="143.0" />    <vehicle id="N_S_45" type="standard_car" route="N_S" depart="145.0" />    <vehicle id="N_S_46" type="standard_car" route="N_S" depart="145.0" />    <vehicle id="N_S_47" type="standard_car" route="N_S" depart="145.0" />    <vehicle id="N_S_48" type="standard_car" route="N_S" depart="145.0" />    <vehicle id="S_W_49" type="standard_car" route="S_W" depart="148.0" />    <vehicle id="N_E_50" type="standard_car" route="N_E" depart="148.0" />    <vehicle id="N_S_51" type="standard_car" route="N_S" depart="149.0" />    <vehicle id="S_N_52" type="standard_car" route="S_N" depart="151.0" />    <vehicle id="N_S_53" type="standard_car" route="N_S" depart="152.0" />    <vehicle id="N_S_54" type="standard_car" route="N_S" depart="153.0" />    <vehicle id="S_N_55" type="standard_car" route="S_N" depart="158.0" />    <vehicle id="S_N_56" type="standard_car" route="S_N" depart="158.0" />    <vehicle id="S_E_57" type="standard_car" route="N_E" depart="159.0" />    <vehicle id="N_S_58" type="standard_car" route="N_S" depart="160.0" />    <vehicle id="N_E_59" type="standard_car" route="N_E" depart="161.0" />    <vehicle id="S_N_60" type="standard_car" route="S_N" depart="163.0" />    <vehicle id="S_N_61" type="standard_car" route="S_N" depart="163.0" />    <vehicle id="N_S_62" type="standard_car" route="N_S" depart="164.0" />    <vehicle id="S_N_63" type="standard_car" route="S_N" depart="165.0" />    <vehicle id="W_E_64" type="standard_car" route="W_E" depart="165.0" />    <vehicle id="S_W_65" type="standard_car" route="S_W" depart="165.0" />    <vehicle id="N_E_66" type="standard_car" route="N_E" depart="166.0" />    <vehicle id="S_N_67" type="standard_car" route="S_N" depart="167.0" />    <vehicle id="N_S_68" type="standard_car" route="N_S" depart="167.0" />    <vehicle id="E_W_69" type="standard_car" route="E_W" depart="168.0" />    <vehicle id="N_S_70" type="standard_car" route="N_S" depart="169.0" />    <vehicle id="S_N_71" type="standard_car" route="S_N" depart="170.0" />    <vehicle id="E_N_72" type="standard_car" route="E_N" depart="171.0" />    <vehicle id="N_S_73" type="standard_car" route="N_S" depart="171.0" />    <vehicle id="S_W_74" type="standard_car" route="S_W" depart="172.0" />    <vehicle id="E_W_75" type="standard_car" route="E_W" depart="172.0" />    <vehicle id="S_N_76" type="standard_car" route="S_N" depart="172.0" />    <vehicle id="N_S_77" type="standard_car" route="N_S" depart="176.0" />    <vehicle id="S_N_78" type="standard_car" route="S_N" depart="177.0" />    <vehicle id="N_S_79" type="standard_car" route="N_S" depart="178.0" />    <vehicle id="N_E_80" type="standard_car" route="N_E" depart="179.0" />    <vehicle id="S_W_81" type="standard_car" route="S_W" depart="182.0" />    <vehicle id="S_N_82" type="standard_car" route="S_N" depart="186.0" />    <vehicle id="N_W_83" type="standard_car" route="N_W" depart="186.0" />    <vehicle id="S_N_84" type="standard_car" route="S_N" depart="190.0" />    <vehicle id="S_W_85" type="standard_car" route="S_W" depart="191.0" />    <vehicle id="S_E_86" type="standard_car" route="N_E" depart="191.0" />    <vehicle id="N_S_87" type="standard_car" route="N_S" depart="192.0" />    <vehicle id="N_S_88" type="standard_car" route="N_S" depart="194.0" />    <vehicle id="N_S_89" type="standard_car" route="N_S" depart="194.0" />    <vehicle id="S_N_90" type="standard_car" route="S_N" depart="195.0" />    <vehicle id="N_S_91" type="standard_car" route="N_S" depart="196.0" />    <vehicle id="N_S_92" type="standard_car" route="N_S" depart="198.0" />    <vehicle id="W_E_93" type="standard_car" route="W_E" depart="199.0" />    <vehicle id="S_W_94" type="standard_car" route="S_W" depart="200.0" />    <vehicle id="N_S_95" type="standard_car" route="N_S" depart="200.0" />    <vehicle id="S_N_96" type="standard_car" route="S_N" depart="201.0" />    <vehicle id="N_S_97" type="standard_car" route="N_S" depart="202.0" />    <vehicle id="S_E_98" type="standard_car" route="N_E" depart="204.0" />    <vehicle id="S_W_99" type="standard_car" route="S_W" depart="204.0" />    <vehicle id="N_S_100" type="standard_car" route="N_S" depart="207.0" />    <vehicle id="N_S_101" type="standard_car" route="N_S" depart="207.0" />    <vehicle id="S_N_102" type="standard_car" route="S_N" depart="208.0" />    <vehicle id="S_N_103" type="standard_car" route="S_N" depart="208.0" />    <vehicle id="E_W_104" type="standard_car" route="E_W" depart="210.0" />    <vehicle id="S_E_105" type="standard_car" route="N_E" depart="211.0" />    <vehicle id="S_N_106" type="standard_car" route="S_N" depart="211.0" />    <vehicle id="N_W_107" type="standard_car" route="N_W" depart="212.0" />    <vehicle id="N_S_108" type="standard_car" route="N_S" depart="214.0" />    <vehicle id="N_W_109" type="standard_car" route="N_W" depart="214.0" />    <vehicle id="S_N_110" type="standard_car" route="S_N" depart="215.0" />    <vehicle id="N_S_111" type="standard_car" route="N_S" depart="216.0" />    <vehicle id="S_E_112" type="standard_car" route="N_E" depart="219.0" />    <vehicle id="N_S_113" type="standard_car" route="N_S" depart="220.0" />    <vehicle id="N_S_114" type="standard_car" route="N_S" depart="221.0" />    <vehicle id="N_S_115" type="standard_car" route="N_S" depart="221.0" />    <vehicle id="S_N_116" type="standard_car" route="S_N" depart="224.0" />    <vehicle id="S_N_117" type="standard_car" route="S_N" depart="227.0" />    <vehicle id="S_W_118" type="standard_car" route="S_W" depart="227.0" />    <vehicle id="N_E_119" type="standard_car" route="N_E" depart="228.0" />    <vehicle id="S_N_120" type="standard_car" route="S_N" depart="229.0" />    <vehicle id="S_N_121" type="standard_car" route="S_N" depart="231.0" />    <vehicle id="S_N_122" type="standard_car" route="S_N" depart="232.0" />    <vehicle id="W_E_123" type="standard_car" route="W_E" depart="232.0" />    <vehicle id="N_S_124" type="standard_car" route="N_S" depart="232.0" />    <vehicle id="N_S_125" type="standard_car" route="N_S" depart="233.0" />    <vehicle id="N_S_126" type="standard_car" route="N_S" depart="234.0" />    <vehicle id="S_N_127" type="standard_car" route="S_N" depart="235.0" />    <vehicle id="S_N_128" type="standard_car" route="S_N" depart="236.0" />    <vehicle id="N_S_129" type="standard_car" route="N_S" depart="236.0" />    <vehicle id="N_S_130" type="standard_car" route="N_S" depart="236.0" />    <vehicle id="S_N_131" type="standard_car" route="S_N" depart="236.0" />    <vehicle id="S_N_132" type="standard_car" route="S_N" depart="239.0" />    <vehicle id="S_N_133" type="standard_car" route="S_N" depart="240.0" />    <vehicle id="N_S_134" type="standard_car" route="N_S" depart="242.0" />    <vehicle id="S_N_135" type="standard_car" route="S_N" depart="242.0" />    <vehicle id="N_S_136" type="standard_car" route="N_S" depart="243.0" />    <vehicle id="S_N_137" type="standard_car" route="S_N" depart="244.0" />    <vehicle id="S_N_138" type="standard_car" route="S_N" depart="245.0" />    <vehicle id="W_E_139" type="standard_car" route="W_E" depart="245.0" />    <vehicle id="S_N_140" type="standard_car" route="S_N" depart="246.0" />    <vehicle id="S_N_141" type="standard_car" route="S_N" depart="248.0" />    <vehicle id="S_N_142" type="standard_car" route="S_N" depart="248.0" />    <vehicle id="N_E_143" type="standard_car" route="N_E" depart="250.0" />    <vehicle id="E_W_144" type="standard_car" route="E_W" depart="250.0" />    <vehicle id="S_N_145" type="standard_car" route="S_N" depart="250.0" />    <vehicle id="S_E_146" type="standard_car" route="N_E" depart="251.0" />    <vehicle id="E_N_147" type="standard_car" route="E_N" depart="252.0" />    <vehicle id="S_N_148" type="standard_car" route="S_N" depart="253.0" />    <vehicle id="S_N_149" type="standard_car" route="S_N" depart="255.0" />    <vehicle id="S_N_150" type="standard_car" route="S_N" depart="256.0" />    <vehicle id="S_W_151" type="standard_car" route="S_W" depart="256.0" />    <vehicle id="N_S_152" type="standard_car" route="N_S" depart="257.0" />    <vehicle id="N_S_153" type="standard_car" route="N_S" depart="257.0" />    <vehicle id="S_E_154" type="standard_car" route="N_E" depart="258.0" />    <vehicle id="E_W_155" type="standard_car" route="E_W" depart="259.0" />    <vehicle id="S_N_156" type="standard_car" route="S_N" depart="259.0" />    <vehicle id="N_S_157" type="standard_car" route="N_S" depart="261.0" />    <vehicle id="N_S_158" type="standard_car" route="N_S" depart="262.0" />    <vehicle id="N_S_159" type="standard_car" route="N_S" depart="263.0" />    <vehicle id="N_S_160" type="standard_car" route="N_S" depart="265.0" />    <vehicle id="S_N_161" type="standard_car" route="S_N" depart="265.0" />    <vehicle id="S_N_162" type="standard_car" route="S_N" depart="265.0" />    <vehicle id="N_E_163" type="standard_car" route="N_E" depart="266.0" />    <vehicle id="N_E_164" type="standard_car" route="N_E" depart="267.0" />    <vehicle id="S_W_165" type="standard_car" route="S_W" depart="269.0" />    <vehicle id="W_E_166" type="standard_car" route="W_E" depart="269.0" />    <vehicle id="S_W_167" type="standard_car" route="S_W" depart="270.0" />    <vehicle id="S_W_168" type="standard_car" route="S_W" depart="271.0" />    <vehicle id="S_E_169" type="standard_car" route="N_E" depart="272.0" />    <vehicle id="S_N_170" type="standard_car" route="S_N" depart="273.0" />    <vehicle id="N_S_171" type="standard_car" route="N_S" depart="274.0" />    <vehicle id="N_S_172" type="standard_car" route="N_S" depart="275.0" />    <vehicle id="N_S_173" type="standard_car" route="N_S" depart="275.0" />    <vehicle id="S_N_174" type="standard_car" route="S_N" depart="275.0" />    <vehicle id="N_S_175" type="standard_car" route="N_S" depart="278.0" />    <vehicle id="S_N_176" type="standard_car" route="S_N" depart="278.0" />    <vehicle id="S_E_177" type="standard_car" route="N_E" depart="279.0" />    <vehicle id="N_S_178" type="standard_car" route="N_S" depart="282.0" />    <vehicle id="N_S_179" type="standard_car" route="N_S" depart="282.0" />    <vehicle id="W_N_180" type="standard_car" route="W_N" depart="282.0" />    <vehicle id="N_S_181" type="standard_car" route="N_S" depart="282.0" />    <vehicle id="S_N_182" type="standard_car" route="S_N" depart="283.0" />    <vehicle id="S_N_183" type="standard_car" route="S_N" depart="283.0" />    <vehicle id="S_W_184" type="standard_car" route="S_W" depart="286.0" />    <vehicle id="S_N_185" type="standard_car" route="S_N" depart="286.0" />    <vehicle id="N_S_186" type="standard_car" route="N_S" depart="287.0" />    <vehicle id="S_N_187" type="standard_car" route="S_N" depart="287.0" />    <vehicle id="S_N_188" type="standard_car" route="S_N" depart="287.0" />    <vehicle id="N_E_189" type="standard_car" route="N_E" depart="287.0" />    <vehicle id="S_E_190" type="standard_car" route="N_E" depart="290.0" />    <vehicle id="S_N_191" type="standard_car" route="S_N" depart="290.0" />    <vehicle id="S_N_192" type="standard_car" route="S_N" depart="291.0" />    <vehicle id="N_S_193" type="standard_car" route="N_S" depart="292.0" />    <vehicle id="S_N_194" type="standard_car" route="S_N" depart="292.0" />    <vehicle id="N_S_195" type="standard_car" route="N_S" depart="293.0" />    <vehicle id="N_S_196" type="standard_car" route="N_S" depart="294.0" />    <vehicle id="S_N_197" type="standard_car" route="S_N" depart="296.0" />    <vehicle id="N_S_198" type="standard_car" route="N_S" depart="296.0" />    <vehicle id="N_S_199" type="standard_car" route="N_S" depart="297.0" />    <vehicle id="S_N_200" type="standard_car" route="S_N" depart="297.0" />    <vehicle id="N_S_201" type="standard_car" route="N_S" depart="297.0" />    <vehicle id="S_N_202" type="standard_car" route="S_N" depart="298.0" />    <vehicle id="N_W_203" type="standard_car" route="N_W" depart="298.0" />    <vehicle id="W_E_204" type="standard_car" route="W_E" depart="299.0" />    <vehicle id="N_S_205" type="standard_car" route="N_S" depart="299.0" />    <vehicle id="N_E_206" type="standard_car" route="N_E" depart="299.0" />    <vehicle id="W_S_207" type="standard_car" route="W_S" depart="300.0" />    <vehicle id="S_N_208" type="standard_car" route="S_N" depart="301.0" />    <vehicle id="E_W_209" type="standard_car" route="E_W" depart="301.0" />    <vehicle id="N_S_210" type="standard_car" route="N_S" depart="301.0" />    <vehicle id="S_N_211" type="standard_car" route="S_N" depart="302.0" />    <vehicle id="N_S_212" type="standard_car" route="N_S" depart="303.0" />    <vehicle id="S_N_213" type="standard_car" route="S_N" depart="306.0" />    <vehicle id="N_S_214" type="standard_car" route="N_S" depart="306.0" />    <vehicle id="N_S_215" type="standard_car" route="N_S" depart="306.0" />    <vehicle id="N_S_216" type="standard_car" route="N_S" depart="307.0" />    <vehicle id="N_S_217" type="standard_car" route="N_S" depart="307.0" />    <vehicle id="W_E_218" type="standard_car" route="W_E" depart="309.0" />    <vehicle id="S_N_219" type="standard_car" route="S_N" depart="311.0" />    <vehicle id="N_W_220" type="standard_car" route="N_W" depart="311.0" />    <vehicle id="W_E_221" type="standard_car" route="W_E" depart="312.0" />    <vehicle id="N_S_222" type="standard_car" route="N_S" depart="313.0" />    <vehicle id="N_S_223" type="standard_car" route="N_S" depart="313.0" />    <vehicle id="N_S_224" type="standard_car" route="N_S" depart="313.0" />    <vehicle id="S_W_225" type="standard_car" route="S_W" depart="314.0" />    <vehicle id="S_N_226" type="standard_car" route="S_N" depart="314.0" />    <vehicle id="S_N_227" type="standard_car" route="S_N" depart="316.0" />    <vehicle id="S_E_228" type="standard_car" route="N_E" depart="316.0" />    <vehicle id="S_N_229" type="standard_car" route="S_N" depart="316.0" />    <vehicle id="N_E_230" type="standard_car" route="N_E" depart="317.0" />    <vehicle id="N_S_231" type="standard_car" route="N_S" depart="318.0" />    <vehicle id="S_N_232" type="standard_car" route="S_N" depart="318.0" />    <vehicle id="S_E_233" type="standard_car" route="N_E" depart="318.0" />    <vehicle id="N_S_234" type="standard_car" route="N_S" depart="319.0" />    <vehicle id="N_S_235" type="standard_car" route="N_S" depart="320.0" />    <vehicle id="N_S_236" type="standard_car" route="N_S" depart="320.0" />    <vehicle id="N_S_237" type="standard_car" route="N_S" depart="321.0" />    <vehicle id="S_N_238" type="standard_car" route="S_N" depart="321.0" />    <vehicle id="N_E_239" type="standard_car" route="N_E" depart="321.0" />    <vehicle id="N_S_240" type="standard_car" route="N_S" depart="322.0" />    <vehicle id="N_S_241" type="standard_car" route="N_S" depart="323.0" />    <vehicle id="S_N_242" type="standard_car" route="S_N" depart="324.0" />    <vehicle id="S_E_243" type="standard_car" route="N_E" depart="327.0" />    <vehicle id="S_N_244" type="standard_car" route="S_N" depart="327.0" />    <vehicle id="N_S_245" type="standard_car" route="N_S" depart="329.0" />    <vehicle id="S_N_246" type="standard_car" route="S_N" depart="329.0" />    <vehicle id="N_W_247" type="standard_car" route="N_W" depart="331.0" />    <vehicle id="W_E_248" type="standard_car" route="W_E" depart="331.0" />    <vehicle id="N_S_249" type="standard_car" route="N_S" depart="331.0" />    <vehicle id="S_N_250" type="standard_car" route="S_N" depart="333.0" />    <vehicle id="S_N_251" type="standard_car" route="S_N" depart="333.0" />    <vehicle id="N_W_252" type="standard_car" route="N_W" depart="333.0" />    <vehicle id="N_S_253" type="standard_car" route="N_S" depart="334.0" />    <vehicle id="S_N_254" type="standard_car" route="S_N" depart="334.0" />    <vehicle id="N_S_255" type="standard_car" route="N_S" depart="335.0" />    <vehicle id="S_N_256" type="standard_car" route="S_N" depart="337.0" />    <vehicle id="S_N_257" type="standard_car" route="S_N" depart="337.0" />    <vehicle id="S_W_258" type="standard_car" route="S_W" depart="338.0" />    <vehicle id="S_N_259" type="standard_car" route="S_N" depart="339.0" />    <vehicle id="N_S_260" type="standard_car" route="N_S" depart="340.0" />    <vehicle id="N_E_261" type="standard_car" route="N_E" depart="341.0" />    <vehicle id="S_E_262" type="standard_car" route="N_E" depart="341.0" />    <vehicle id="N_S_263" type="standard_car" route="N_S" depart="344.0" />    <vehicle id="S_N_264" type="standard_car" route="S_N" depart="344.0" />    <vehicle id="W_E_265" type="standard_car" route="W_E" depart="344.0" />    <vehicle id="N_W_266" type="standard_car" route="N_W" depart="348.0" />    <vehicle id="N_S_267" type="standard_car" route="N_S" depart="348.0" />    <vehicle id="S_N_268" type="standard_car" route="S_N" depart="350.0" />    <vehicle id="S_E_269" type="standard_car" route="N_E" depart="350.0" />    <vehicle id="S_N_270" type="standard_car" route="S_N" depart="350.0" />    <vehicle id="E_W_271" type="standard_car" route="E_W" depart="350.0" />    <vehicle id="N_S_272" type="standard_car" route="N_S" depart="351.0" />    <vehicle id="N_S_273" type="standard_car" route="N_S" depart="352.0" />    <vehicle id="E_W_274" type="standard_car" route="E_W" depart="352.0" />    <vehicle id="S_N_275" type="standard_car" route="S_N" depart="352.0" />    <vehicle id="S_N_276" type="standard_car" route="S_N" depart="352.0" />    <vehicle id="N_S_277" type="standard_car" route="N_S" depart="352.0" />    <vehicle id="S_W_278" type="standard_car" route="S_W" depart="354.0" />    <vehicle id="N_S_279" type="standard_car" route="N_S" depart="354.0" />    <vehicle id="N_S_280" type="standard_car" route="N_S" depart="354.0" />    <vehicle id="S_N_281" type="standard_car" route="S_N" depart="356.0" />    <vehicle id="S_N_282" type="standard_car" route="S_N" depart="356.0" />    <vehicle id="S_N_283" type="standard_car" route="S_N" depart="356.0" />    <vehicle id="S_N_284" type="standard_car" route="S_N" depart="356.0" />    <vehicle id="E_N_285" type="standard_car" route="E_N" depart="357.0" />    <vehicle id="S_N_286" type="standard_car" route="S_N" depart="357.0" />    <vehicle id="S_N_287" type="standard_car" route="S_N" depart="358.0" />    <vehicle id="N_E_288" type="standard_car" route="N_E" depart="358.0" />    <vehicle id="S_E_289" type="standard_car" route="N_E" depart="360.0" />    <vehicle id="S_N_290" type="standard_car" route="S_N" depart="360.0" />    <vehicle id="N_S_291" type="standard_car" route="N_S" depart="360.0" />    <vehicle id="N_S_292" type="standard_car" route="N_S" depart="360.0" />    <vehicle id="N_S_293" type="standard_car" route="N_S" depart="360.0" />    <vehicle id="N_S_294" type="standard_car" route="N_S" depart="361.0" />    <vehicle id="S_N_295" type="standard_car" route="S_N" depart="363.0" />    <vehicle id="S_N_296" type="standard_car" route="S_N" depart="363.0" />    <vehicle id="S_N_297" type="standard_car" route="S_N" depart="365.0" />    <vehicle id="N_S_298" type="standard_car" route="N_S" depart="366.0" />    <vehicle id="W_E_299" type="standard_car" route="W_E" depart="366.0" />    <vehicle id="S_N_300" type="standard_car" route="S_N" depart="367.0" />    <vehicle id="N_S_301" type="standard_car" route="N_S" depart="368.0" />    <vehicle id="N_E_302" type="standard_car" route="N_E" depart="369.0" />    <vehicle id="N_S_303" type="standard_car" route="N_S" depart="370.0" />    <vehicle id="S_N_304" type="standard_car" route="S_N" depart="370.0" />    <vehicle id="N_S_305" type="standard_car" route="N_S" depart="370.0" />    <vehicle id="N_S_306" type="standard_car" route="N_S" depart="371.0" />    <vehicle id="S_E_307" type="standard_car" route="N_E" depart="371.0" />    <vehicle id="N_E_308" type="standard_car" route="N_E" depart="372.0" />    <vehicle id="S_N_309" type="standard_car" route="S_N" depart="372.0" />    <vehicle id="W_S_310" type="standard_car" route="W_S" depart="372.0" />    <vehicle id="S_N_311" type="standard_car" route="S_N" depart="372.0" />    <vehicle id="N_W_312" type="standard_car" route="N_W" depart="373.0" />    <vehicle id="N_S_313" type="standard_car" route="N_S" depart="374.0" />    <vehicle id="S_N_314" type="standard_car" route="S_N" depart="374.0" />    <vehicle id="N_S_315" type="standard_car" route="N_S" depart="375.0" />    <vehicle id="S_N_316" type="standard_car" route="S_N" depart="376.0" />    <vehicle id="S_E_317" type="standard_car" route="N_E" depart="376.0" />    <vehicle id="N_E_318" type="standard_car" route="N_E" depart="377.0" />    <vehicle id="N_S_319" type="standard_car" route="N_S" depart="377.0" />    <vehicle id="S_N_320" type="standard_car" route="S_N" depart="378.0" />    <vehicle id="S_E_321" type="standard_car" route="N_E" depart="379.0" />    <vehicle id="S_N_322" type="standard_car" route="S_N" depart="379.0" />    <vehicle id="S_N_323" type="standard_car" route="S_N" depart="380.0" />    <vehicle id="S_N_324" type="standard_car" route="S_N" depart="382.0" />    <vehicle id="S_N_325" type="standard_car" route="S_N" depart="384.0" />    <vehicle id="S_E_326" type="standard_car" route="N_E" depart="384.0" />    <vehicle id="N_S_327" type="standard_car" route="N_S" depart="385.0" />    <vehicle id="N_W_328" type="standard_car" route="N_W" depart="386.0" />    <vehicle id="N_W_329" type="standard_car" route="N_W" depart="387.0" />    <vehicle id="S_W_330" type="standard_car" route="S_W" depart="388.0" />    <vehicle id="S_N_331" type="standard_car" route="S_N" depart="389.0" />    <vehicle id="N_S_332" type="standard_car" route="N_S" depart="390.0" />    <vehicle id="N_E_333" type="standard_car" route="N_E" depart="390.0" />    <vehicle id="N_S_334" type="standard_car" route="N_S" depart="390.0" />    <vehicle id="N_S_335" type="standard_car" route="N_S" depart="391.0" />    <vehicle id="S_N_336" type="standard_car" route="S_N" depart="392.0" />    <vehicle id="S_W_337" type="standard_car" route="S_W" depart="393.0" />    <vehicle id="N_S_338" type="standard_car" route="N_S" depart="394.0" />    <vehicle id="S_N_339" type="standard_car" route="S_N" depart="394.0" />    <vehicle id="N_W_340" type="standard_car" route="N_W" depart="396.0" />    <vehicle id="N_W_341" type="standard_car" route="N_W" depart="396.0" />    <vehicle id="N_W_342" type="standard_car" route="N_W" depart="398.0" />    <vehicle id="S_N_343" type="standard_car" route="S_N" depart="400.0" />    <vehicle id="N_W_344" type="standard_car" route="N_W" depart="401.0" />    <vehicle id="S_N_345" type="standard_car" route="S_N" depart="401.0" />    <vehicle id="S_N_346" type="standard_car" route="S_N" depart="402.0" />    <vehicle id="W_E_347" type="standard_car" route="W_E" depart="403.0" />    <vehicle id="N_S_348" type="standard_car" route="N_S" depart="404.0" />    <vehicle id="S_W_349" type="standard_car" route="S_W" depart="404.0" />    <vehicle id="N_S_350" type="standard_car" route="N_S" depart="405.0" />    <vehicle id="N_S_351" type="standard_car" route="N_S" depart="405.0" />    <vehicle id="S_N_352" type="standard_car" route="S_N" depart="405.0" />    <vehicle id="S_N_353" type="standard_car" route="S_N" depart="405.0" />    <vehicle id="N_W_354" type="standard_car" route="N_W" depart="406.0" />    <vehicle id="N_S_355" type="standard_car" route="N_S" depart="407.0" />    <vehicle id="E_W_356" type="standard_car" route="E_W" depart="408.0" />    <vehicle id="S_N_357" type="standard_car" route="S_N" depart="408.0" />    <vehicle id="N_S_358" type="standard_car" route="N_S" depart="410.0" />    <vehicle id="S_N_359" type="standard_car" route="S_N" depart="411.0" />    <vehicle id="N_S_360" type="standard_car" route="N_S" depart="411.0" />    <vehicle id="E_W_361" type="standard_car" route="E_W" depart="412.0" />    <vehicle id="S_N_362" type="standard_car" route="S_N" depart="412.0" />    <vehicle id="S_N_363" type="standard_car" route="S_N" depart="412.0" />    <vehicle id="E_N_364" type="standard_car" route="E_N" depart="413.0" />    <vehicle id="N_S_365" type="standard_car" route="N_S" depart="413.0" />    <vehicle id="N_S_366" type="standard_car" route="N_S" depart="413.0" />    <vehicle id="S_N_367" type="standard_car" route="S_N" depart="414.0" />    <vehicle id="S_N_368" type="standard_car" route="S_N" depart="414.0" />    <vehicle id="S_N_369" type="standard_car" route="S_N" depart="414.0" />    <vehicle id="N_S_370" type="standard_car" route="N_S" depart="415.0" />    <vehicle id="S_N_371" type="standard_car" route="S_N" depart="415.0" />    <vehicle id="N_S_372" type="standard_car" route="N_S" depart="417.0" />    <vehicle id="S_E_373" type="standard_car" route="N_E" depart="420.0" />    <vehicle id="S_N_374" type="standard_car" route="S_N" depart="420.0" />    <vehicle id="N_S_375" type="standard_car" route="N_S" depart="421.0" />    <vehicle id="S_N_376" type="standard_car" route="S_N" depart="421.0" />    <vehicle id="E_S_377" type="standard_car" route="E_S" depart="422.0" />    <vehicle id="W_E_378" type="standard_car" route="W_E" depart="423.0" />    <vehicle id="N_S_379" type="standard_car" route="N_S" depart="423.0" />    <vehicle id="S_E_380" type="standard_car" route="N_E" depart="423.0" />    <vehicle id="S_E_381" type="standard_car" route="N_E" depart="424.0" />    <vehicle id="N_S_382" type="standard_car" route="N_S" depart="425.0" />    <vehicle id="N_S_383" type="standard_car" route="N_S" depart="426.0" />    <vehicle id="N_S_384" type="standard_car" route="N_S" depart="427.0" />    <vehicle id="N_S_385" type="standard_car" route="N_S" depart="427.0" />    <vehicle id="N_W_386" type="standard_car" route="N_W" depart="428.0" />    <vehicle id="S_N_387" type="standard_car" route="S_N" depart="431.0" />    <vehicle id="N_S_388" type="standard_car" route="N_S" depart="432.0" />    <vehicle id="S_N_389" type="standard_car" route="S_N" depart="432.0" />    <vehicle id="N_S_390" type="standard_car" route="N_S" depart="433.0" />    <vehicle id="S_N_391" type="standard_car" route="S_N" depart="433.0" />    <vehicle id="N_S_392" type="standard_car" route="N_S" depart="433.0" />    <vehicle id="S_N_393" type="standard_car" route="S_N" d