<routes>
    <vType accel="1.0" decel="4.5" id="standard_car" length="5.0" minGap="2.5" maxSpeed="25" sigma="0.5" />

    <route id="W_N" edges="W2TL TL2N"/>
    <route id="W_E" edges="W2TL TL2E"/>
    <route id="W_S" edges="W2TL TL2S"/>
    <route id="N_W" edges="N2TL TL2W"/>
    <route id="N_E" edges="N2TL TL2E"/>
    <route id="N_S" edges="N2TL TL2S"/>
    <route id="E_W" edges="E2TL TL2W"/>
    <route id="E_N" edges="E2TL TL2N"/>
    <route id="E_S" edges="E2TL TL2S"/>
    <route id="S_W" edges="S2TL TL2W"/>
    <route id="S_N" edges="S2TL TL2N"/>
    <route id="S_E" edges="S2TL TL2E"/>    <vehicle id="S_N_0" type="standard_car" route="S_N" depart="8.0" />    <vehicle id="S_N_1" type="standard_car" route="S_N" depart="17.0" />    <vehicle id="S_N_2" type="standard_car" route="S_N" depart="21.0" />    <vehicle id="N_S_3" type="standard_car" route="N_S" depart="23.0" />    <vehicle id="S_N_4" type="standard_car" route="S_N" depart="27.0" />    <vehicle id="N_S_5" type="standard_car" route="N_S" depart="33.0" />    <vehicle id="S_N_6" type="standard_car" route="S_N" depart="36.0" />    <vehicle id="N_S_7" type="standard_car" route="N_S" depart="41.0" />    <vehicle id="E_N_8" type="standard_car" route="E_N" depart="47.0" />    <vehicle id="N_W_9" type="standard_car" route="N_W" depart="55.0" />    <vehicle id="N_S_10" type="standard_car" route="N_S" depart="56.0" />    <vehicle id="S_W_11" type="standard_car" route="S_W" depart="61.0" />    <vehicle id="N_W_12" type="standard_car" route="N_W" depart="62.0" />    <vehicle id="N_S_13" type="standard_car" route="N_S" depart="62.0" />    <vehicle id="N_S_14" type="standard_car" route="N_S" depart="64.0" />    <vehicle id="N_W_15" type="standard_car" route="N_W" depart="65.0" />    <vehicle id="N_S_16" type="standard_car" route="N_S" depart="66.0" />    <vehicle id="E_W_17" type="standard_car" route="E_W" depart="67.0" />    <vehicle id="S_N_18" type="standard_car" route="S_N" depart="67.0" />    <vehicle id="N_S_19" type="standard_car" route="N_S" depart="69.0" />    <vehicle id="N_S_20" type="standard_car" route="N_S" depart="71.0" />    <vehicle id="W_N_21" type="standard_car" route="W_N" depart="77.0" />    <vehicle id="S_N_22" type="standard_car" route="S_N" depart="80.0" />    <vehicle id="N_S_23" type="standard_car" route="N_S" depart="80.0" />    <vehicle id="N_S_24" type="standard_car" route="N_S" depart="86.0" />    <vehicle id="N_S_25" type="standard_car" route="N_S" depart="87.0" />    <vehicle id="S_W_26" type="standard_car" route="S_W" depart="87.0" />    <vehicle id="N_S_27" type="standard_car" route="N_S" depart="91.0" />    <vehicle id="N_S_28" type="standard_car" route="N_S" depart="93.0" />    <vehicle id="N_S_29" type="standard_car" route="N_S" depart="94.0" />    <vehicle id="S_N_30" type="standard_car" route="S_N" depart="96.0" />    <vehicle id="S_N_31" type="standard_car" route="S_N" depart="96.0" />    <vehicle id="N_S_32" type="standard_car" route="N_S" depart="98.0" />    <vehicle id="N_S_33" type="standard_car" route="N_S" depart="99.0" />    <vehicle id="E_W_34" type="standard_car" route="E_W" depart="100.0" />    <vehicle id="S_N_35" type="standard_car" route="S_N" depart="104.0" />    <vehicle id="N_S_36" type="standard_car" route="N_S" depart="104.0" />    <vehicle id="N_S_37" type="standard_car" route="N_S" depart="105.0" />    <vehicle id="S_W_38" type="standard_car" route="S_W" depart="106.0" />    <vehicle id="N_W_39" type="standard_car" route="N_W" depart="108.0" />    <vehicle id="N_S_40" type="standard_car" route="N_S" depart="108.0" />    <vehicle id="N_S_41" type="standard_car" route="N_S" depart="109.0" />    <vehicle id="N_E_42" type="standard_car" route="N_E" depart="111.0" />    <vehicle id="W_E_43" type="standard_car" route="W_E" depart="113.0" />    <vehicle id="N_S_44" type="standard_car" route="N_S" depart="113.0" />    <vehicle id="S_W_45" type="standard_car" route="S_W" depart="113.0" />    <vehicle id="N_S_46" type="standard_car" route="N_S" depart="115.0" />    <vehicle id="N_S_47" type="standard_car" route="N_S" depart="115.0" />    <vehicle id="S_N_48" type="standard_car" route="S_N" depart="116.0" />    <vehicle id="N_S_49" type="standard_car" route="N_S" depart="117.0" />    <vehicle id="N_S_50" type="standard_car" route="N_S" depart="118.0" />    <vehicle id="N_S_51" type="standard_car" route="N_S" depart="118.0" />    <vehicle id="S_N_52" type="standard_car" route="S_N" depart="118.0" />    <vehicle id="S_N_53" type="standard_car" route="S_N" depart="120.0" />    <vehicle id="N_S_54" type="standard_car" route="N_S" depart="122.0" />    <vehicle id="S_E_55" type="standard_car" route="N_E" depart="123.0" />    <vehicle id="N_W_56" type="standard_car" route="N_W" depart="124.0" />    <vehicle id="S_N_57" type="standard_car" route="S_N" depart="125.0" />    <vehicle id="N_S_58" type="standard_car" route="N_S" depart="125.0" />    <vehicle id="N_S_59" type="standard_car" route="N_S" depart="125.0" />    <vehicle id="N_S_60" type="standard_car" route="N_S" depart="126.0" />    <vehicle id="N_S_61" type="standard_car" route="N_S" depart="127.0" />    <vehicle id="N_S_62" type="standard_car" route="N_S" depart="128.0" />    <vehicle id="S_N_63" type="standard_car" route="S_N" depart="129.0" />    <vehicle id="W_E_64" type="standard_car" route="W_E" depart="130.0" />    <vehicle id="S_N_65" type="standard_car" route="S_N" depart="131.0" />    <vehicle id="S_N_66" type="standard_car" route="S_N" depart="132.0" />    <vehicle id="S_E_67" type="standard_car" route="N_E" depart="134.0" />    <vehicle id="N_S_68" type="standard_car" route="N_S" depart="137.0" />    <vehicle id="S_N_69" type="standard_car" route="S_N" depart="138.0" />    <vehicle id="S_N_70" type="standard_car" route="S_N" depart="141.0" />    <vehicle id="N_S_71" type="standard_car" route="N_S" depart="141.0" />    <vehicle id="S_W_72" type="standard_car" route="S_W" depart="142.0" />    <vehicle id="S_N_73" type="standard_car" route="S_N" depart="142.0" />    <vehicle id="S_N_74" type="standard_car" route="S_N" depart="142.0" />    <vehicle id="N_S_75" type="standard_car" route="N_S" depart="142.0" />    <vehicle id="S_N_76" type="standard_car" route="S_N" depart="143.0" />    <vehicle id="S_N_77" type="standard_car" route="S_N" depart="143.0" />    <vehicle id="N_E_78" type="standard_car" route="N_E" depart="144.0" />    <vehicle id="W_E_79" type="standard_car" route="W_E" depart="144.0" />    <vehicle id="N_S_80" type="standard_car" route="N_S" depart="144.0" />    <vehicle id="N_S_81" type="standard_car" route="N_S" depart="145.0" />    <vehicle id="S_N_82" type="standard_car" route="S_N" depart="145.0" />    <vehicle id="S_E_83" type="standard_car" route="N_E" depart="147.0" />    <vehicle id="S_E_84" type="standard_car" route="N_E" depart="147.0" />    <vehicle id="N_W_85" type="standard_car" route="N_W" depart="149.0" />    <vehicle id="S_N_86" type="standard_car" route="S_N" depart="151.0" />    <vehicle id="S_N_87" type="standard_car" route="S_N" depart="152.0" />    <vehicle id="S_N_88" type="standard_car" route="S_N" depart="153.0" />    <vehicle id="S_E_89" type="standard_car" route="N_E" depart="154.0" />    <vehicle id="N_S_90" type="standard_car" route="N_S" depart="155.0" />    <vehicle id="S_E_91" type="standard_car" route="N_E" depart="155.0" />    <vehicle id="S_W_92" type="standard_car" route="S_W" depart="156.0" />    <vehicle id="N_S_93" type="standard_car" route="N_S" depart="157.0" />    <vehicle id="S_N_94" type="standard_car" route="S_N" depart="158.0" />    <vehicle id="S_N_95" type="standard_car" route="S_N" depart="158.0" />    <vehicle id="N_W_96" type="standard_car" route="N_W" depart="158.0" />    <vehicle id="S_N_97" type="standard_car" route="S_N" depart="158.0" />    <vehicle id="S_N_98" type="standard_car" route="S_N" depart="159.0" />    <vehicle id="N_S_99" type="standard_car" route="N_S" depart="161.0" />    <vehicle id="S_N_100" type="standard_car" route="S_N" depart="162.0" />    <vehicle id="S_N_101" type="standard_car" route="S_N" depart="164.0" />    <vehicle id="N_S_102" type="standard_car" route="N_S" depart="165.0" />    <vehicle id="N_S_103" type="standard_car" route="N_S" depart="165.0" />    <vehicle id="S_N_104" type="standard_car" route="S_N" depart="166.0" />    <vehicle id="S_W_105" type="standard_car" route="S_W" depart="166.0" />    <vehicle id="S_E_106" type="standard_car" route="N_E" depart="168.0" />    <vehicle id="S_N_107" type="standard_car" route="S_N" depart="168.0" />    <vehicle id="S_N_108" type="standard_car" route="S_N" depart="170.0" />    <vehicle id="S_N_109" type="standard_car" route="S_N" depart="170.0" />    <vehicle id="N_S_110" type="standard_car" route="N_S" depart="170.0" />    <vehicle id="S_N_111" type="standard_car" route="S_N" depart="171.0" />    <vehicle id="N_S_112" type="standard_car" route="N_S" depart="172.0" />    <vehicle id="N_S_113" type="standard_car" route="N_S" depart="172.0" />    <vehicle id="S_E_114" type="standard_car" route="N_E" depart="174.0" />    <vehicle id="S_N_115" type="standard_car" route="S_N" depart="175.0" />    <vehicle id="N_S_116" type="standard_car" route="N_S" depart="175.0" />    <vehicle id="N_S_117" type="standard_car" route="N_S" depart="177.0" />    <vehicle id="N_S_118" type="standard_car" route="N_S" depart="177.0" />    <vehicle id="N_S_119" type="standard_car" route="N_S" depart="178.0" />    <vehicle id="E_W_120" type="standard_car" route="E_W" depart="180.0" />    <vehicle id="W_E_121" type="standard_car" route="W_E" depart="180.0" />    <vehicle id="W_E_122" type="standard_car" route="W_E" depart="181.0" />    <vehicle id="S_N_123" type="standard_car" route="S_N" depart="182.0" />    <vehicle id="S_N_124" type="standard_car" route="S_N" depart="184.0" />    <vehicle id="N_S_125" type="standard_car" route="N_S" depart="185.0" />    <vehicle id="N_S_126" type="standard_car" route="N_S" depart="185.0" />    <vehicle id="N_S_127" type="standard_car" route="N_S" depart="185.0" />    <vehicle id="S_N_128" type="standard_car" route="S_N" depart="187.0" />    <vehicle id="S_E_129" type="standard_car" route="N_E" depart="187.0" />    <vehicle id="N_S_130" type="standard_car" route="N_S" depart="187.0" />    <vehicle id="S_N_131" type="standard_car" route="S_N" depart="188.0" />    <vehicle id="E_W_132" type="standard_car" route="E_W" depart="188.0" />    <vehicle id="E_W_133" type="standard_car" route="E_W" depart="188.0" />    <vehicle id="N_S_134" type="standard_car" route="N_S" depart="189.0" />    <vehicle id="S_N_135" type="standard_car" route="S_N" depart="189.0" />    <vehicle id="S_E_136" type="standard_car" route="N_E" depart="191.0" />    <vehicle id="S_W_137" type="standard_car" route="S_W" depart="191.0" />    <vehicle id="E_S_138" type="standard_car" route="E_S" depart="191.0" />    <vehicle id="E_W_139" type="standard_car" route="E_W" depart="192.0" />    <vehicle id="S_N_140" type="standard_car" route="S_N" depart="192.0" />    <vehicle id="W_E_141" type="standard_car" route="W_E" depart="192.0" />    <vehicle id="S_N_142" type="standard_car" route="S_N" depart="192.0" />    <vehicle id="S_W_143" type="standard_car" route="S_W" depart="194.0" />    <vehicle id="W_E_144" type="standard_car" route="W_E" depart="195.0" />    <vehicle id="S_N_145" type="standard_car" route="S_N" depart="195.0" />    <vehicle id="W_E_146" type="standard_car" route="W_E" depart="197.0" />    <vehicle id="S_N_147" type="standard_car" route="S_N" depart="201.0" />    <vehicle id="S_N_148" type="standard_car" route="S_N" depart="202.0" />    <vehicle id="N_S_149" type="standard_car" route="N_S" depart="202.0" />    <vehicle id="N_S_150" type="standard_car" route="N_S" depart="203.0" />    <vehicle id="N_S_151" type="standard_car" route="N_S" depart="204.0" />    <vehicle id="N_S_152" type="standard_car" route="N_S" depart="206.0" />    <vehicle id="N_S_153" type="standard_car" route="N_S" depart="206.0" />    <vehicle id="S_N_154" type="standard_car" route="S_N" depart="206.0" />    <vehicle id="S_N_155" type="standard_car" route="S_N" depart="209.0" />    <vehicle id="S_E_156" type="standard_car" route="N_E" depart="211.0" />    <vehicle id="S_N_157" type="standard_car" route="S_N" depart="211.0" />    <vehicle id="S_N_158" type="standard_car" route="S_N" depart="211.0" />    <vehicle id="S_N_159" type="standard_car" route="S_N" depart="212.0" />    <vehicle id="S_N_160" type="standard_car" route="S_N" depart="213.0" />    <vehicle id="S_N_161" type="standard_car" route="S_N" depart="213.0" />    <vehicle id="S_W_162" type="standard_car" route="S_W" depart="215.0" />    <vehicle id="S_N_163" type="standard_car" route="S_N" depart="216.0" />    <vehicle id="S_N_164" type="standard_car" route="S_N" depart="218.0" />    <vehicle id="S_N_165" type="standard_car" route="S_N" depart="218.0" />    <vehicle id="N_S_166" type="standard_car" route="N_S" depart="220.0" />    <vehicle id="S_N_167" type="standard_car" route="S_N" depart="220.0" />    <vehicle id="S_N_168" type="standard_car" route="S_N" depart="220.0" />    <vehicle id="S_E_169" type="standard_car" route="N_E" depart="221.0" />    <vehicle id="S_N_170" type="standard_car" route="S_N" depart="221.0" />    <vehicle id="S_N_171" type="standard_car" route="S_N" depart="222.0" />    <vehicle id="N_W_172" type="standard_car" route="N_W" depart="222.0" />    <vehicle id="N_S_173" type="standard_car" route="N_S" depart="223.0" />    <vehicle id="N_S_174" type="standard_car" route="N_S" depart="223.0" />    <vehicle id="N_S_175" type="standard_car" route="N_S" depart="224.0" />    <vehicle id="S_N_176" type="standard_car" route="S_N" depart="224.0" />    <vehicle id="S_N_177" type="standard_car" route="S_N" depart="224.0" />    <vehicle id="N_S_178" type="standard_car" route="N_S" depart="225.0" />    <vehicle id="N_E_179" type="standard_car" route="N_E" depart="226.0" />    <vehicle id="S_N_180" type="standard_car" route="S_N" depart="226.0" />    <vehicle id="N_E_181" type="standard_car" route="N_E" depart="227.0" />    <vehicle id="S_E_182" type="standard_car" route="N_E" depart="227.0" />    <vehicle id="N_S_183" type="standard_car" route="N_S" depart="229.0" />    <vehicle id="S_E_184" type="standard_car" route="N_E" depart="229.0" />    <vehicle id="S_N_185" type="standard_car" route="S_N" depart="229.0" />    <vehicle id="S_W_186" type="standard_car" route="S_W" depart="230.0" />    <vehicle id="S_N_187" type="standard_car" route="S_N" depart="230.0" />    <vehicle id="S_N_188" type="standard_car" route="S_N" depart="231.0" />    <vehicle id="S_N_189" type="standard_car" route="S_N" depart="231.0" />    <vehicle id="N_S_190" type="standard_car" route="N_S" depart="232.0" />    <vehicle id="N_S_191" type="standard_car" route="N_S" depart="234.0" />    <vehicle id="N_S_192" type="standard_car" route="N_S" depart="234.0" />    <vehicle id="S_N_193" type="standard_car" route="S_N" depart="234.0" />    <vehicle id="N_W_194" type="standard_car" route="N_W" depart="235.0" />    <vehicle id="S_N_195" type="standard_car" route="S_N" depart="235.0" />    <vehicle id="S_N_196" type="standard_car" route="S_N" depart="236.0" />    <vehicle id="N_S_197" type="standard_car" route="N_S" depart="237.0" />    <vehicle id="N_W_198" type="standard_car" route="N_W" depart="238.0" />    <vehicle id="S_E_199" type="standard_car" route="N_E" depart="239.0" />    <vehicle id="N_S_200" type="standard_car" route="N_S" depart="239.0" />    <vehicle id="N_E_201" type="standard_car" route="N_E" depart="239.0" />    <vehicle id="S_N_202" type="standard_car" route="S_N" depart="239.0" />    <vehicle id="N_S_203" type="standard_car" route="N_S" depart="240.0" />    <vehicle id="N_S_204" type="standard_car" route="N_S" depart="240.0" />    <vehicle id="N_S_205" type="standard_car" route="N_S" depart="240.0" />    <vehicle id="N_S_206" type="standard_car" route="N_S" depart="241.0" />    <vehicle id="N_S_207" type="standard_car" route="N_S" depart="241.0" />    <vehicle id="N_S_208" type="standard_car" route="N_S" depart="242.0" />    <vehicle id="N_S_209" type="standard_car" route="N_S" depart="242.0" />    <vehicle id="S_N_210" type="standard_car" route="S_N" depart="243.0" />    <vehicle id="N_W_211" type="standard_car" route="N_W" depart="244.0" />    <vehicle id="N_S_212" type="standard_car" route="N_S" depart="244.0" />    <vehicle id="N_S_213" type="standard_car" route="N_S" depart="246.0" />    <vehicle id="N_S_214" type="standard_car" route="N_S" depart="247.0" />    <vehicle id="N_S_215" type="standard_car" route="N_S" depart="247.0" />    <vehicle id="S_N_216" type="standard_car" route="S_N" depart="248.0" />    <vehicle id="E_W_217" type="standard_car" route="E_W" depart="249.0" />    <vehicle id="S_W_218" type="standard_car" route="S_W" depart="249.0" />    <vehicle id="S_N_219" type="standard_car" route="S_N" depart="250.0" />    <vehicle id="N_S_220" type="standard_car" route="N_S" depart="252.0" />    <vehicle id="N_W_221" type="standard_car" route="N_W" depart="252.0" />    <vehicle id="N_S_222" type="standard_car" route="N_S" depart="252.0" />    <vehicle id="E_W_223" type="standard_car" route="E_W" depart="253.0" />    <vehicle id="S_N_224" type="standard_car" route="S_N" depart="254.0" />    <vehicle id="S_N_225" type="standard_car" route="S_N" depart="255.0" />    <vehicle id="N_W_226" type="standard_car" route="N_W" depart="255.0" />    <vehicle id="N_E_227" type="standard_car" route="N_E" depart="256.0" />    <vehicle id="N_S_228" type="standard_car" route="N_S" depart="257.0" />    <vehicle id="N_S_229" type="standard_car" route="N_S" depart="257.0" />    <vehicle id="N_S_230" type="standard_car" route="N_S" depart="258.0" />    <vehicle id="S_N_231" type="standard_car" route="S_N" depart="258.0" />    <vehicle id="S_E_232" type="standard_car" route="N_E" depart="259.0" />    <vehicle id="S_N_233" type="standard_car" route="S_N" depart="260.0" />    <vehicle id="S_N_234" type="standard_car" route="S_N" depart="261.0" />    <vehicle id="S_N_235" type="standard_car" route="S_N" depart="261.0" />    <vehicle id="S_N_236" type="standard_car" route="S_N" depart="261.0" />    <vehicle id="E_W_237" type="standard_car" route="E_W" depart="262.0" />    <vehicle id="N_S_238" type="standard_car" route="N_S" depart="262.0" />    <vehicle id="N_E_239" type="standard_car" route="N_E" depart="262.0" />    <vehicle id="S_N_240" type="standard_car" route="S_N" depart="263.0" />    <vehicle id="N_E_241" type="standard_car" route="N_E" depart="264.0" />    <vehicle id="S_N_242" type="standard_car" route="S_N" depart="265.0" />    <vehicle id="S_N_243" type="standard_car" route="S_N" depart="265.0" />    <vehicle id="N_S_244" type="standard_car" route="N_S" depart="266.0" />    <vehicle id="S_N_245" type="standard_car" route="S_N" depart="266.0" />    <vehicle id="N_S_246" type="standard_car" route="N_S" depart="266.0" />    <vehicle id="N_S_247" type="standard_car" route="N_S" depart="267.0" />    <vehicle id="N_E_248" type="standard_car" route="N_E" depart="267.0" />    <vehicle id="N_W_249" type="standard_car" route="N_W" depart="269.0" />    <vehicle id="S_E_250" type="standard_car" route="N_E" depart="270.0" />    <vehicle id="S_N_251" type="standard_car" route="S_N" depart="272.0" />    <vehicle id="N_W_252" type="standard_car" route="N_W" depart="276.0" />    <vehicle id="N_S_253" type="standard_car" route="N_S" depart="276.0" />    <vehicle id="N_S_254" type="standard_car" route="N_S" depart="276.0" />    <vehicle id="S_N_255" type="standard_car" route="S_N" depart="278.0" />    <vehicle id="S_N_256" type="standard_car" route="S_N" depart="278.0" />    <vehicle id="S_N_257" type="standard_car" route="S_N" depart="278.0" />    <vehicle id="N_S_258" type="standard_car" route="N_S" depart="278.0" />    <vehicle id="S_N_259" type="standard_car" route="S_N" depart="280.0" />    <vehicle id="S_N_260" type="standard_car" route="S_N" depart="280.0" />    <vehicle id="N_E_261" type="standard_car" route="N_E" depart="281.0" />    <vehicle id="N_S_262" type="standard_car" route="N_S" depart="281.0" />    <vehicle id="S_N_263" type="standard_car" route="S_N" depart="281.0" />    <vehicle id="N_S_264" type="standard_car" route="N_S" depart="282.0" />    <vehicle id="N_S_265" type="standard_car" route="N_S" depart="282.0" />    <vehicle id="N_S_266" type="standard_car" route="N_S" depart="283.0" />    <vehicle id="N_S_267" type="standard_car" route="N_S" depart="283.0" />    <vehicle id="S_N_268" type="standard_car" route="S_N" depart="284.0" />    <vehicle id="N_S_269" type="standard_car" route="N_S" depart="286.0" />    <vehicle id="N_E_270" type="standard_car" route="N_E" depart="287.0" />    <vehicle id="N_S_271" type="standard_car" route="N_S" depart="287.0" />    <vehicle id="S_N_272" type="standard_car" route="S_N" depart="287.0" />    <vehicle id="N_W_273" type="standard_car" route="N_W" depart="287.0" />    <vehicle id="E_W_274" type="standard_car" route="E_W" depart="288.0" />    <vehicle id="S_E_275" type="standard_car" route="N_E" depart="288.0" />    <vehicle id="N_S_276" type="standard_car" route="N_S" depart="288.0" />    <vehicle id="S_N_277" type="standard_car" route="S_N" depart="289.0" />    <vehicle id="S_N_278" type="standard_car" route="S_N" depart="289.0" />    <vehicle id="S_E_279" type="standard_car" route="N_E" depart="289.0" />    <vehicle id="S_N_280" type="standard_car" route="S_N" depart="289.0" />    <vehicle id="N_E_281" type="standard_car" route="N_E" depart="289.0" />    <vehicle id="N_S_282" type="standard_car" route="N_S" depart="290.0" />    <vehicle id="E_W_283" type="standard_car" route="E_W" depart="290.0" />    <vehicle id="N_S_284" type="standard_car" route="N_S" depart="290.0" />    <vehicle id="N_E_285" type="standard_car" route="N_E" depart="292.0" />    <vehicle id="N_S_286" type="standard_car" route="N_S" depart="292.0" />    <vehicle id="N_S_287" type="standard_car" route="N_S" depart="292.0" />    <vehicle id="W_E_288" type="standard_car" route="W_E" depart="292.0" />    <vehicle id="S_N_289" type="standard_car" route="S_N" depart="292.0" />    <vehicle id="S_E_290" type="standard_car" route="N_E" depart="293.0" />    <vehicle id="N_S_291" type="standard_car" route="N_S" depart="293.0" />    <vehicle id="S_N_292" type="standard_car" route="S_N" depart="293.0" />    <vehicle id="S_W_293" type="standard_car" route="S_W" depart="294.0" />    <vehicle id="N_S_294" type="standard_car" route="N_S" depart="294.0" />    <vehicle id="W_E_295" type="standard_car" route="W_E" depart="295.0" />    <vehicle id="N_S_296" type="standard_car" route="N_S" depart="295.0" />    <vehicle id="N_S_297" type="standard_car" route="N_S" depart="295.0" />    <vehicle id="S_N_298" type="standard_car" route="S_N" depart="295.0" />    <vehicle id="N_S_299" type="standard_car" route="N_S" depart="295.0" />    <vehicle id="N_W_300" type="standard_car" route="N_W" depart="296.0" />    <vehicle id="W_E_301" type="standard_car" route="W_E" depart="296.0" />    <vehicle id="S_N_302" type="standard_car" route="S_N" depart="296.0" />    <vehicle id="S_N_303" type="standard_car" route="S_N" depart="297.0" />    <vehicle id="N_S_304" type="standard_car" route="N_S" depart="297.0" />    <vehicle id="N_S_305" type="standard_car" route="N_S" depart="298.0" />    <vehicle id="S_N_306" type="standard_car" route="S_N" depart="298.0" />    <vehicle id="N_E_307" type="standard_car" route="N_E" depart="298.0" />    <vehicle id="S_N_308" type="standard_car" route="S_N" depart="298.0" />    <vehicle id="N_S_309" type="standard_car" route="N_S" depart="299.0" />    <vehicle id="S_N_310" type="standard_car" route="S_N" depart="299.0" />    <vehicle id="W_E_311" type="standard_car" route="W_E" depart="300.0" />    <vehicle id="N_S_312" type="standard_car" route="N_S" depart="300.0" />    <vehicle id="N_S_313" type="standard_car" route="N_S" depart="300.0" />    <vehicle id="S_N_314" type="standard_car" route="S_N" depart="301.0" />    <vehicle id="E_S_315" type="standard_car" route="E_S" depart="302.0" />    <vehicle id="N_S_316" type="standard_car" route="N_S" depart="302.0" />    <vehicle id="N_S_317" type="standard_car" route="N_S" depart="302.0" />    <vehicle id="N_E_318" type="standard_car" route="N_E" depart="303.0" />    <vehicle id="N_S_319" type="standard_car" route="N_S" depart="303.0" />    <vehicle id="N_S_320" type="standard_car" route="N_S" depart="303.0" />    <vehicle id="N_E_321" type="standard_car" route="N_E" depart="303.0" />    <vehicle id="S_W_322" type="standard_car" route="S_W" depart="304.0" />    <vehicle id="N_S_323" type="standard_car" route="N_S" depart="304.0" />    <vehicle id="N_S_324" type="standard_car" route="N_S" depart="305.0" />    <vehicle id="N_S_325" type="standard_car" route="N_S" depart="306.0" />    <vehicle id="S_E_326" type="standard_car" route="N_E" depart="307.0" />    <vehicle id="S_N_327" type="standard_car" route="S_N" depart="307.0" />    <vehicle id="N_S_328" type="standard_car" route="N_S" depart="307.0" />    <vehicle id="N_S_329" type="standard_car" route="N_S" depart="308.0" />    <vehicle id="N_S_330" type="standard_car" route="N_S" depart="308.0" />    <vehicle id="S_N_331" type="standard_car" route="S_N" depart="308.0" />    <vehicle id="N_S_332" type="standard_car" route="N_S" depart="309.0" />    <vehicle id="S_N_333" type="standard_car" route="S_N" depart="310.0" />    <vehicle id="N_E_334" type="standard_car" route="N_E" depart="311.0" />    <vehicle id="S_N_335" type="standard_car" route="S_N" depart="311.0" />    <vehicle id="S_E_336" type="standard_car" route="N_E" depart="311.0" />    <vehicle id="W_N_337" type="standard_car" route="W_N" depart="311.0" />    <vehicle id="N_S_338" type="standard_car" route="N_S" depart="311.0" />    <vehicle id="N_S_339" type="standard_car" route="N_S" depart="311.0" />    <vehicle id="N_E_340" type="standard_car" route="N_E" depart="313.0" />    <vehicle id="N_S_341" type="standard_car" route="N_S" depart="313.0" />    <vehicle id="N_S_342" type="standard_car" route="N_S" depart="314.0" />    <vehicle id="S_E_343" type="standard_car" route="N_E" depart="314.0" />    <vehicle id="S_N_344" type="standard_car" route="S_N" depart="315.0" />    <vehicle id="S_N_345" type="standard_car" route="S_N" depart="315.0" />    <vehicle id="N_E_346" type="standard_car" route="N_E" depart="315.0" />    <vehicle id="S_N_347" type="standard_car" route="S_N" depart="315.0" />    <vehicle id="S_N_348" type="standard_car" route="S_N" depart="316.0" />    <vehicle id="N_E_349" type="standard_car" route="N_E" depart="316.0" />    <vehicle id="S_N_350" type="standard_car" route="S_N" depart="316.0" />    <vehicle id="N_S_351" type="standard_car" route="N_S" depart="316.0" />    <vehicle id="S_N_352" type="standard_car" route="S_N" depart="317.0" />    <vehicle id="S_E_353" type="standard_car" route="N_E" depart="317.0" />    <vehicle id="E_N_354" type="standard_car" route="E_N" depart="317.0" />    <vehicle id="N_E_355" type="standard_car" route="N_E" depart="317.0" />    <vehicle id="S_E_356" type="standard_car" route="N_E" depart="318.0" />    <vehicle id="S_N_357" type="standard_car" route="S_N" depart="318.0" />    <vehicle id="W_E_358" type="standard_car" route="W_E" depart="318.0" />    <vehicle id="N_W_359" type="standard_car" route="N_W" depart="318.0" />    <vehicle id="S_N_360" type="standard_car" route="S_N" depart="318.0" />    <vehicle id="N_E_361" type="standard_car" route="N_E" depart="318.0" />    <vehicle id="S_W_362" type="standard_car" route="S_W" depart="318.0" />    <vehicle id="N_E_363" type="standard_car" route="N_E" depart="319.0" />    <vehicle id="N_S_364" type="standard_car" route="N_S" depart="319.0" />    <vehicle id="N_S_365" type="standard_car" route="N_S" depart="319.0" />    <vehicle id="N_S_366" type="standard_car" route="N_S" depart="319.0" />    <vehicle id="N_S_367" type="standard_car" route="N_S" depart="320.0" />    <vehicle id="N_W_368" type="standard_car" route="N_W" depart="320.0" />    <vehicle id="W_S_369" type="standard_car" route="W_S" depart="320.0" />    <vehicle id="S_N_370" type="standard_car" route="S_N" depart="322.0" />    <vehicle id="S_E_371" type="standard_car" route="N_E" depart="322.0" />    <vehicle id="S_N_372" type="standard_car" route="S_N" depart="322.0" />    <vehicle id="S_E_373" type="standard_car" route="N_E" depart="322.0" />    <vehicle id="S_N_374" type="standard_car" route="S_N" depart="324.0" />    <vehicle id="S_N_375" type="standard_car" route="S_N" depart="325.0" />    <vehicle id="N_S_376" type="standard_car" route="N_S" depart="326.0" />    <vehicle id="S_N_377" type="standard_car" route="S_N" depart="326.0" />    <vehicle id="N_S_378" type="standard_car" route="N_S" depart="327.0" />    <vehicle id="S_N_379" type="standard_car" route="S_N" depart="327.0" />    <vehicle id="N_S_380" type="standard_car" route="N_S" depart="327.0" />    <vehicle id="N_W_381" type="standard_car" route="N_W" depart="329.0" />    <vehicle id="N_E_382" type="standard_car" route="N_E" depart="329.0" />    <vehicle id="S_N_383" type="standard_car" route="S_N" depart="329.0" />    <vehicle id="S_N_384" type="standard_car" route="S_N" depart="330.0" />    <vehicle id="N_S_385" type="standard_car" route="N_S" depart="331.0" />    <vehicle id="S_N_386" type="standard_car" route="S_N" depart="332.0" />    <vehicle id="S_N_387" type="standard_car" route="S_N" depart="332.0" />    <vehicle id="N_S_388" type="standard_car" route="N_S" depart="333.0" />    <vehicle id="S_N_389" type="standard_car" route="S_N" depart="334.0" />    <vehicle id="S_W_390" type="standard_car" route="S_W" depart="334.0" />    <vehicle id="N_S_391" type="standard_car" route="N_S" depart="334.0" />    <vehicle id="N_S_392" type="standard_car" route="N_S" depart="335.0" />    <vehicle id="E_W_393" type="standard_car" route="E_W" depart="335.0" 