<routes>
    <vType accel="1.0" decel="4.5" id="standard_car" length="5.0" minGap="2.5" maxSpeed="25" sigma="0.5" />

    <route id="W_N" edges="W2TL TL2N"/>
    <route id="W_E" edges="W2TL TL2E"/>
    <route id="W_S" edges="W2TL TL2S"/>
    <route id="N_W" edges="N2TL TL2W"/>
    <route id="N_E" edges="N2TL TL2E"/>
    <route id="N_S" edges="N2TL TL2S"/>
    <route id="E_W" edges="E2TL TL2W"/>
    <route id="E_N" edges="E2TL TL2N"/>
    <route id="E_S" edges="E2TL TL2S"/>
    <route id="S_W" edges="S2TL TL2W"/>
    <route id="S_N" edges="S2TL TL2N"/>
    <route id="S_E" edges="S2TL TL2E"/>    <vehicle id="N_S_0" type="standard_car" route="N_S" depart="4.0" />    <vehicle id="S_N_1" type="standard_car" route="S_N" depart="4.0" />    <vehicle id="S_N_2" type="standard_car" route="S_N" depart="8.0" />    <vehicle id="N_W_3" type="standard_car" route="N_W" depart="10.0" />    <vehicle id="S_N_4" type="standard_car" route="S_N" depart="30.0" />    <vehicle id="S_N_5" type="standard_car" route="S_N" depart="33.0" />    <vehicle id="S_N_6" type="standard_car" route="S_N" depart="37.0" />    <vehicle id="N_S_7" type="standard_car" route="N_S" depart="50.0" />    <vehicle id="N_S_8" type="standard_car" route="N_S" depart="55.0" />    <vehicle id="S_E_9" type="standard_car" route="N_E" depart="56.0" />    <vehicle id="S_N_10" type="standard_car" route="S_N" depart="58.0" />    <vehicle id="N_S_11" type="standard_car" route="N_S" depart="58.0" />    <vehicle id="N_W_12" type="standard_car" route="N_W" depart="59.0" />    <vehicle id="S_W_13" type="standard_car" route="S_W" depart="61.0" />    <vehicle id="N_S_14" type="standard_car" route="N_S" depart="61.0" />    <vehicle id="N_S_15" type="standard_car" route="N_S" depart="73.0" />    <vehicle id="N_S_16" type="standard_car" route="N_S" depart="74.0" />    <vehicle id="E_W_17" type="standard_car" route="E_W" depart="74.0" />    <vehicle id="N_E_18" type="standard_car" route="N_E" depart="76.0" />    <vehicle id="N_S_19" type="standard_car" route="N_S" depart="79.0" />    <vehicle id="S_W_20" type="standard_car" route="S_W" depart="80.0" />    <vehicle id="N_S_21" type="standard_car" route="N_S" depart="82.0" />    <vehicle id="S_N_22" type="standard_car" route="S_N" depart="83.0" />    <vehicle id="S_E_23" type="standard_car" route="N_E" depart="85.0" />    <vehicle id="S_N_24" type="standard_car" route="S_N" depart="86.0" />    <vehicle id="N_W_25" type="standard_car" route="N_W" depart="87.0" />    <vehicle id="N_S_26" type="standard_car" route="N_S" depart="90.0" />    <vehicle id="N_S_27" type="standard_car" route="N_S" depart="91.0" />    <vehicle id="N_S_28" type="standard_car" route="N_S" depart="93.0" />    <vehicle id="W_E_29" type="standard_car" route="W_E" depart="97.0" />    <vehicle id="N_S_30" type="standard_car" route="N_S" depart="98.0" />    <vehicle id="S_N_31" type="standard_car" route="S_N" depart="103.0" />    <vehicle id="N_S_32" type="standard_car" route="N_S" depart="107.0" />    <vehicle id="N_W_33" type="standard_car" route="N_W" depart="107.0" />    <vehicle id="N_S_34" type="standard_car" route="N_S" depart="110.0" />    <vehicle id="W_E_35" type="standard_car" route="W_E" depart="111.0" />    <vehicle id="N_S_36" type="standard_car" route="N_S" depart="113.0" />    <vehicle id="N_S_37" type="standard_car" route="N_S" depart="114.0" />    <vehicle id="N_S_38" type="standard_car" route="N_S" depart="114.0" />    <vehicle id="S_W_39" type="standard_car" route="S_W" depart="116.0" />    <vehicle id="N_W_40" type="standard_car" route="N_W" depart="116.0" />    <vehicle id="N_S_41" type="standard_car" route="N_S" depart="116.0" />    <vehicle id="S_E_42" type="standard_car" route="N_E" depart="122.0" />    <vehicle id="N_S_43" type="standard_car" route="N_S" depart="122.0" />    <vehicle id="N_S_44" type="standard_car" route="N_S" depart="124.0" />    <vehicle id="N_S_45" type="standard_car" route="N_S" depart="127.0" />    <vehicle id="N_E_46" type="standard_car" route="N_E" depart="127.0" />    <vehicle id="S_N_47" type="standard_car" route="S_N" depart="128.0" />    <vehicle id="S_N_48" type="standard_car" route="S_N" depart="128.0" />    <vehicle id="N_E_49" type="standard_car" route="N_E" depart="129.0" />    <vehicle id="S_N_50" type="standard_car" route="S_N" depart="130.0" />    <vehicle id="S_N_51" type="standard_car" route="S_N" depart="131.0" />    <vehicle id="S_N_52" type="standard_car" route="S_N" depart="132.0" />    <vehicle id="W_E_53" type="standard_car" route="W_E" depart="132.0" />    <vehicle id="S_N_54" type="standard_car" route="S_N" depart="135.0" />    <vehicle id="S_N_55" type="standard_car" route="S_N" depart="136.0" />    <vehicle id="N_S_56" type="standard_car" route="N_S" depart="137.0" />    <vehicle id="N_S_57" type="standard_car" route="N_S" depart="138.0" />    <vehicle id="N_S_58" type="standard_car" route="N_S" depart="138.0" />    <vehicle id="N_S_59" type="standard_car" route="N_S" depart="139.0" />    <vehicle id="S_W_60" type="standard_car" route="S_W" depart="139.0" />    <vehicle id="W_S_61" type="standard_car" route="W_S" depart="140.0" />    <vehicle id="N_S_62" type="standard_car" route="N_S" depart="141.0" />    <vehicle id="N_S_63" type="standard_car" route="N_S" depart="143.0" />    <vehicle id="N_S_64" type="standard_car" route="N_S" depart="144.0" />    <vehicle id="S_N_65" type="standard_car" route="S_N" depart="145.0" />    <vehicle id="S_N_66" type="standard_car" route="S_N" depart="145.0" />    <vehicle id="N_S_67" type="standard_car" route="N_S" depart="146.0" />    <vehicle id="W_E_68" type="standard_car" route="W_E" depart="147.0" />    <vehicle id="S_N_69" type="standard_car" route="S_N" depart="147.0" />    <vehicle id="S_E_70" type="standard_car" route="N_E" depart="147.0" />    <vehicle id="N_S_71" type="standard_car" route="N_S" depart="148.0" />    <vehicle id="S_N_72" type="standard_car" route="S_N" depart="150.0" />    <vehicle id="N_S_73" type="standard_car" route="N_S" depart="150.0" />    <vehicle id="S_N_74" type="standard_car" route="S_N" depart="151.0" />    <vehicle id="S_N_75" type="standard_car" route="S_N" depart="152.0" />    <vehicle id="N_S_76" type="standard_car" route="N_S" depart="152.0" />    <vehicle id="S_N_77" type="standard_car" route="S_N" depart="153.0" />    <vehicle id="S_N_78" type="standard_car" route="S_N" depart="155.0" />    <vehicle id="S_W_79" type="standard_car" route="S_W" depart="156.0" />    <vehicle id="N_E_80" type="standard_car" route="N_E" depart="158.0" />    <vehicle id="N_S_81" type="standard_car" route="N_S" depart="159.0" />    <vehicle id="S_N_82" type="standard_car" route="S_N" depart="160.0" />    <vehicle id="N_S_83" type="standard_car" route="N_S" depart="161.0" />    <vehicle id="S_N_84" type="standard_car" route="S_N" depart="161.0" />    <vehicle id="S_N_85" type="standard_car" route="S_N" depart="162.0" />    <vehicle id="S_N_86" type="standard_car" route="S_N" depart="163.0" />    <vehicle id="W_E_87" type="standard_car" route="W_E" depart="163.0" />    <vehicle id="S_N_88" type="standard_car" route="S_N" depart="164.0" />    <vehicle id="S_N_89" type="standard_car" route="S_N" depart="168.0" />    <vehicle id="S_N_90" type="standard_car" route="S_N" depart="170.0" />    <vehicle id="S_N_91" type="standard_car" route="S_N" depart="171.0" />    <vehicle id="N_E_92" type="standard_car" route="N_E" depart="172.0" />    <vehicle id="N_E_93" type="standard_car" route="N_E" depart="173.0" />    <vehicle id="S_N_94" type="standard_car" route="S_N" depart="174.0" />    <vehicle id="N_S_95" type="standard_car" route="N_S" depart="175.0" />    <vehicle id="N_S_96" type="standard_car" route="N_S" depart="175.0" />    <vehicle id="N_S_97" type="standard_car" route="N_S" depart="176.0" />    <vehicle id="S_N_98" type="standard_car" route="S_N" depart="177.0" />    <vehicle id="S_N_99" type="standard_car" route="S_N" depart="177.0" />    <vehicle id="E_N_100" type="standard_car" route="E_N" depart="178.0" />    <vehicle id="S_N_101" type="standard_car" route="S_N" depart="178.0" />    <vehicle id="N_S_102" type="standard_car" route="N_S" depart="178.0" />    <vehicle id="S_W_103" type="standard_car" route="S_W" depart="180.0" />    <vehicle id="S_N_104" type="standard_car" route="S_N" depart="181.0" />    <vehicle id="N_W_105" type="standard_car" route="N_W" depart="181.0" />    <vehicle id="S_N_106" type="standard_car" route="S_N" depart="182.0" />    <vehicle id="S_N_107" type="standard_car" route="S_N" depart="182.0" />    <vehicle id="S_N_108" type="standard_car" route="S_N" depart="182.0" />    <vehicle id="S_N_109" type="standard_car" route="S_N" depart="183.0" />    <vehicle id="N_S_110" type="standard_car" route="N_S" depart="185.0" />    <vehicle id="S_N_111" type="standard_car" route="S_N" depart="186.0" />    <vehicle id="S_N_112" type="standard_car" route="S_N" depart="186.0" />    <vehicle id="S_N_113" type="standard_car" route="S_N" depart="186.0" />    <vehicle id="S_N_114" type="standard_car" route="S_N" depart="187.0" />    <vehicle id="N_W_115" type="standard_car" route="N_W" depart="187.0" />    <vehicle id="S_N_116" type="standard_car" route="S_N" depart="188.0" />    <vehicle id="S_N_117" type="standard_car" route="S_N" depart="188.0" />    <vehicle id="S_N_118" type="standard_car" route="S_N" depart="189.0" />    <vehicle id="W_E_119" type="standard_car" route="W_E" depart="190.0" />    <vehicle id="N_S_120" type="standard_car" route="N_S" depart="190.0" />    <vehicle id="W_S_121" type="standard_car" route="W_S" depart="190.0" />    <vehicle id="N_S_122" type="standard_car" route="N_S" depart="193.0" />    <vehicle id="N_S_123" type="standard_car" route="N_S" depart="193.0" />    <vehicle id="S_N_124" type="standard_car" route="S_N" depart="193.0" />    <vehicle id="N_E_125" type="standard_car" route="N_E" depart="195.0" />    <vehicle id="S_N_126" type="standard_car" route="S_N" depart="195.0" />    <vehicle id="N_S_127" type="standard_car" route="N_S" depart="195.0" />    <vehicle id="N_W_128" type="standard_car" route="N_W" depart="197.0" />    <vehicle id="E_W_129" type="standard_car" route="E_W" depart="197.0" />    <vehicle id="N_W_130" type="standard_car" route="N_W" depart="197.0" />    <vehicle id="E_N_131" type="standard_car" route="E_N" depart="198.0" />    <vehicle id="S_N_132" type="standard_car" route="S_N" depart="200.0" />    <vehicle id="S_N_133" type="standard_car" route="S_N" depart="200.0" />    <vehicle id="N_S_134" type="standard_car" route="N_S" depart="201.0" />    <vehicle id="S_N_135" type="standard_car" route="S_N" depart="201.0" />    <vehicle id="S_E_136" type="standard_car" route="N_E" depart="202.0" />    <vehicle id="W_E_137" type="standard_car" route="W_E" depart="202.0" />    <vehicle id="S_N_138" type="standard_car" route="S_N" depart="202.0" />    <vehicle id="S_N_139" type="standard_car" route="S_N" depart="203.0" />    <vehicle id="S_W_140" type="standard_car" route="S_W" depart="203.0" />    <vehicle id="S_N_141" type="standard_car" route="S_N" depart="204.0" />    <vehicle id="S_N_142" type="standard_car" route="S_N" depart="205.0" />    <vehicle id="S_W_143" type="standard_car" route="S_W" depart="206.0" />    <vehicle id="S_N_144" type="standard_car" route="S_N" depart="207.0" />    <vehicle id="N_W_145" type="standard_car" route="N_W" depart="208.0" />    <vehicle id="E_W_146" type="standard_car" route="E_W" depart="208.0" />    <vehicle id="S_E_147" type="standard_car" route="N_E" depart="208.0" />    <vehicle id="S_E_148" type="standard_car" route="N_E" depart="208.0" />    <vehicle id="N_S_149" type="standard_car" route="N_S" depart="209.0" />    <vehicle id="S_N_150" type="standard_car" route="S_N" depart="209.0" />    <vehicle id="S_E_151" type="standard_car" route="N_E" depart="209.0" />    <vehicle id="E_W_152" type="standard_car" route="E_W" depart="209.0" />    <vehicle id="W_E_153" type="standard_car" route="W_E" depart="211.0" />    <vehicle id="S_E_154" type="standard_car" route="N_E" depart="211.0" />    <vehicle id="N_S_155" type="standard_car" route="N_S" depart="211.0" />    <vehicle id="S_N_156" type="standard_car" route="S_N" depart="212.0" />    <vehicle id="N_S_157" type="standard_car" route="N_S" depart="213.0" />    <vehicle id="S_N_158" type="standard_car" route="S_N" depart="213.0" />    <vehicle id="S_E_159" type="standard_car" route="N_E" depart="214.0" />    <vehicle id="N_S_160" type="standard_car" route="N_S" depart="216.0" />    <vehicle id="N_S_161" type="standard_car" route="N_S" depart="219.0" />    <vehicle id="N_S_162" type="standard_car" route="N_S" depart="219.0" />    <vehicle id="S_W_163" type="standard_car" route="S_W" depart="219.0" />    <vehicle id="S_W_164" type="standard_car" route="S_W" depart="219.0" />    <vehicle id="N_E_165" type="standard_car" route="N_E" depart="221.0" />    <vehicle id="N_W_166" type="standard_car" route="N_W" depart="221.0" />    <vehicle id="E_S_167" type="standard_car" route="E_S" depart="221.0" />    <vehicle id="S_N_168" type="standard_car" route="S_N" depart="223.0" />    <vehicle id="N_S_169" type="standard_car" route="N_S" depart="223.0" />    <vehicle id="N_S_170" type="standard_car" route="N_S" depart="225.0" />    <vehicle id="N_S_171" type="standard_car" route="N_S" depart="225.0" />    <vehicle id="W_S_172" type="standard_car" route="W_S" depart="226.0" />    <vehicle id="N_S_173" type="standard_car" route="N_S" depart="227.0" />    <vehicle id="E_S_174" type="standard_car" route="E_S" depart="227.0" />    <vehicle id="N_S_175" type="standard_car" route="N_S" depart="228.0" />    <vehicle id="S_E_176" type="standard_car" route="N_E" depart="230.0" />    <vehicle id="N_W_177" type="standard_car" route="N_W" depart="231.0" />    <vehicle id="N_S_178" type="standard_car" route="N_S" depart="231.0" />    <vehicle id="N_S_179" type="standard_car" route="N_S" depart="232.0" />    <vehicle id="S_E_180" type="standard_car" route="N_E" depart="232.0" />    <vehicle id="N_S_181" type="standard_car" route="N_S" depart="234.0" />    <vehicle id="N_S_182" type="standard_car" route="N_S" depart="235.0" />    <vehicle id="W_E_183" type="standard_car" route="W_E" depart="235.0" />    <vehicle id="S_N_184" type="standard_car" route="S_N" depart="235.0" />    <vehicle id="S_N_185" type="standard_car" route="S_N" depart="236.0" />    <vehicle id="S_N_186" type="standard_car" route="S_N" depart="236.0" />    <vehicle id="N_S_187" type="standard_car" route="N_S" depart="237.0" />    <vehicle id="S_N_188" type="standard_car" route="S_N" depart="239.0" />    <vehicle id="N_S_189" type="standard_car" route="N_S" depart="240.0" />    <vehicle id="S_N_190" type="standard_car" route="S_N" depart="240.0" />    <vehicle id="S_N_191" type="standard_car" route="S_N" depart="241.0" />    <vehicle id="S_W_192" type="standard_car" route="S_W" depart="242.0" />    <vehicle id="N_S_193" type="standard_car" route="N_S" depart="242.0" />    <vehicle id="E_N_194" type="standard_car" route="E_N" depart="243.0" />    <vehicle id="N_S_195" type="standard_car" route="N_S" depart="243.0" />    <vehicle id="N_S_196" type="standard_car" route="N_S" depart="244.0" />    <vehicle id="E_W_197" type="standard_car" route="E_W" depart="245.0" />    <vehicle id="N_S_198" type="standard_car" route="N_S" depart="245.0" />    <vehicle id="W_E_199" type="standard_car" route="W_E" depart="247.0" />    <vehicle id="S_N_200" type="standard_car" route="S_N" depart="247.0" />    <vehicle id="S_N_201" type="standard_car" route="S_N" depart="247.0" />    <vehicle id="E_W_202" type="standard_car" route="E_W" depart="248.0" />    <vehicle id="E_W_203" type="standard_car" route="E_W" depart="250.0" />    <vehicle id="S_N_204" type="standard_car" route="S_N" depart="251.0" />    <vehicle id="S_E_205" type="standard_car" route="N_E" depart="251.0" />    <vehicle id="N_S_206" type="standard_car" route="N_S" depart="251.0" />    <vehicle id="S_W_207" type="standard_car" route="S_W" depart="251.0" />    <vehicle id="W_E_208" type="standard_car" route="W_E" depart="252.0" />    <vehicle id="S_W_209" type="standard_car" route="S_W" depart="252.0" />    <vehicle id="N_S_210" type="standard_car" route="N_S" depart="253.0" />    <vehicle id="N_E_211" type="standard_car" route="N_E" depart="254.0" />    <vehicle id="E_W_212" type="standard_car" route="E_W" depart="254.0" />    <vehicle id="E_N_213" type="standard_car" route="E_N" depart="254.0" />    <vehicle id="S_N_214" type="standard_car" route="S_N" depart="254.0" />    <vehicle id="N_W_215" type="standard_car" route="N_W" depart="254.0" />    <vehicle id="N_S_216" type="standard_car" route="N_S" depart="254.0" />    <vehicle id="N_S_217" type="standard_car" route="N_S" depart="254.0" />    <vehicle id="W_E_218" type="standard_car" route="W_E" depart="255.0" />    <vehicle id="S_W_219" type="standard_car" route="S_W" depart="255.0" />    <vehicle id="S_W_220" type="standard_car" route="S_W" depart="256.0" />    <vehicle id="N_S_221" type="standard_car" route="N_S" depart="256.0" />    <vehicle id="S_N_222" type="standard_car" route="S_N" depart="257.0" />    <vehicle id="S_N_223" type="standard_car" route="S_N" depart="257.0" />    <vehicle id="E_S_224" type="standard_car" route="E_S" depart="257.0" />    <vehicle id="N_S_225" type="standard_car" route="N_S" depart="258.0" />    <vehicle id="W_E_226" type="standard_car" route="W_E" depart="258.0" />    <vehicle id="S_N_227" type="standard_car" route="S_N" depart="259.0" />    <vehicle id="E_S_228" type="standard_car" route="E_S" depart="259.0" />    <vehicle id="S_W_229" type="standard_car" route="S_W" depart="260.0" />    <vehicle id="N_S_230" type="standard_car" route="N_S" depart="262.0" />    <vehicle id="N_S_231" type="standard_car" route="N_S" depart="262.0" />    <vehicle id="S_E_232" type="standard_car" route="N_E" depart="264.0" />    <vehicle id="S_N_233" type="standard_car" route="S_N" depart="264.0" />    <vehicle id="S_N_234" type="standard_car" route="S_N" depart="265.0" />    <vehicle id="S_N_235" type="standard_car" route="S_N" depart="265.0" />    <vehicle id="S_N_236" type="standard_car" route="S_N" depart="265.0" />    <vehicle id="N_S_237" type="standard_car" route="N_S" depart="265.0" />    <vehicle id="S_E_238" type="standard_car" route="N_E" depart="266.0" />    <vehicle id="S_N_239" type="standard_car" route="S_N" depart="266.0" />    <vehicle id="S_N_240" type="standard_car" route="S_N" depart="269.0" />    <vehicle id="N_S_241" type="standard_car" route="N_S" depart="269.0" />    <vehicle id="S_N_242" type="standard_car" route="S_N" depart="270.0" />    <vehicle id="S_E_243" type="standard_car" route="N_E" depart="270.0" />    <vehicle id="S_E_244" type="standard_car" route="N_E" depart="271.0" />    <vehicle id="S_E_245" type="standard_car" route="N_E" depart="271.0" />    <vehicle id="S_N_246" type="standard_car" route="S_N" depart="272.0" />    <vehicle id="S_N_247" type="standard_car" route="S_N" depart="272.0" />    <vehicle id="N_S_248" type="standard_car" route="N_S" depart="272.0" />    <vehicle id="N_S_249" type="standard_car" route="N_S" depart="274.0" />    <vehicle id="S_N_250" type="standard_car" route="S_N" depart="275.0" />    <vehicle id="N_W_251" type="standard_car" route="N_W" depart="275.0" />    <vehicle id="N_S_252" type="standard_car" route="N_S" depart="276.0" />    <vehicle id="S_E_253" type="standard_car" route="N_E" depart="276.0" />    <vehicle id="E_S_254" type="standard_car" route="E_S" depart="276.0" />    <vehicle id="N_S_255" type="standard_car" route="N_S" depart="280.0" />    <vehicle id="E_N_256" type="standard_car" route="E_N" depart="280.0" />    <vehicle id="S_N_257" type="standard_car" route="S_N" depart="281.0" />    <vehicle id="N_S_258" type="standard_car" route="N_S" depart="282.0" />    <vehicle id="N_S_259" type="standard_car" route="N_S" depart="282.0" />    <vehicle id="S_N_260" type="standard_car" route="S_N" depart="283.0" />    <vehicle id="S_N_261" type="standard_car" route="S_N" depart="283.0" />    <vehicle id="S_W_262" type="standard_car" route="S_W" depart="284.0" />    <vehicle id="N_S_263" type="standard_car" route="N_S" depart="284.0" />    <vehicle id="N_S_264" type="standard_car" route="N_S" depart="284.0" />    <vehicle id="N_S_265" type="standard_car" route="N_S" depart="284.0" />    <vehicle id="S_E_266" type="standard_car" route="N_E" depart="284.0" />    <vehicle id="N_S_267" type="standard_car" route="N_S" depart="285.0" />    <vehicle id="N_S_268" type="standard_car" route="N_S" depart="285.0" />    <vehicle id="N_S_269" type="standard_car" route="N_S" depart="285.0" />    <vehicle id="N_S_270" type="standard_car" route="N_S" depart="286.0" />    <vehicle id="N_S_271" type="standard_car" route="N_S" depart="286.0" />    <vehicle id="S_W_272" type="standard_car" route="S_W" depart="287.0" />    <vehicle id="S_E_273" type="standard_car" route="N_E" depart="288.0" />    <vehicle id="S_N_274" type="standard_car" route="S_N" depart="288.0" />    <vehicle id="N_S_275" type="standard_car" route="N_S" depart="289.0" />    <vehicle id="S_N_276" type="standard_car" route="S_N" depart="290.0" />    <vehicle id="S_N_277" type="standard_car" route="S_N" depart="290.0" />    <vehicle id="S_E_278" type="standard_car" route="N_E" depart="290.0" />    <vehicle id="N_E_279" type="standard_car" route="N_E" depart="291.0" />    <vehicle id="S_N_280" type="standard_car" route="S_N" depart="291.0" />    <vehicle id="N_S_281" type="standard_car" route="N_S" depart="291.0" />    <vehicle id="N_S_282" type="standard_car" route="N_S" depart="292.0" />    <vehicle id="S_E_283" type="standard_car" route="N_E" depart="292.0" />    <vehicle id="N_S_284" type="standard_car" route="N_S" depart="293.0" />    <vehicle id="N_S_285" type="standard_car" route="N_S" depart="294.0" />    <vehicle id="N_S_286" type="standard_car" route="N_S" depart="294.0" />    <vehicle id="N_S_287" type="standard_car" route="N_S" depart="294.0" />    <vehicle id="N_E_288" type="standard_car" route="N_E" depart="295.0" />    <vehicle id="N_S_289" type="standard_car" route="N_S" depart="295.0" />    <vehicle id="N_S_290" type="standard_car" route="N_S" depart="296.0" />    <vehicle id="N_S_291" type="standard_car" route="N_S" depart="297.0" />    <vehicle id="S_W_292" type="standard_car" route="S_W" depart="298.0" />    <vehicle id="N_W_293" type="standard_car" route="N_W" depart="298.0" />    <vehicle id="N_S_294" type="standard_car" route="N_S" depart="299.0" />    <vehicle id="N_E_295" type="standard_car" route="N_E" depart="299.0" />    <vehicle id="W_E_296" type="standard_car" route="W_E" depart="300.0" />    <vehicle id="N_S_297" type="standard_car" route="N_S" depart="300.0" />    <vehicle id="N_W_298" type="standard_car" route="N_W" depart="301.0" />    <vehicle id="E_W_299" type="standard_car" route="E_W" depart="301.0" />    <vehicle id="S_N_300" type="standard_car" route="S_N" depart="301.0" />    <vehicle id="S_N_301" type="standard_car" route="S_N" depart="301.0" />    <vehicle id="N_S_302" type="standard_car" route="N_S" depart="301.0" />    <vehicle id="S_N_303" type="standard_car" route="S_N" depart="302.0" />    <vehicle id="N_S_304" type="standard_car" route="N_S" depart="303.0" />    <vehicle id="N_S_305" type="standard_car" route="N_S" depart="304.0" />    <vehicle id="S_N_306" type="standard_car" route="S_N" depart="305.0" />    <vehicle id="S_E_307" type="standard_car" route="N_E" depart="305.0" />    <vehicle id="N_S_308" type="standard_car" route="N_S" depart="306.0" />    <vehicle id="N_S_309" type="standard_car" route="N_S" depart="306.0" />    <vehicle id="S_N_310" type="standard_car" route="S_N" depart="306.0" />    <vehicle id="S_E_311" type="standard_car" route="N_E" depart="307.0" />    <vehicle id="N_S_312" type="standard_car" route="N_S" depart="308.0" />    <vehicle id="N_S_313" type="standard_car" route="N_S" depart="309.0" />    <vehicle id="N_E_314" type="standard_car" route="N_E" depart="309.0" />    <vehicle id="N_S_315" type="standard_car" route="N_S" depart="309.0" />    <vehicle id="E_W_316" type="standard_car" route="E_W" depart="309.0" />    <vehicle id="N_S_317" type="standard_car" route="N_S" depart="310.0" />    <vehicle id="N_S_318" type="standard_car" route="N_S" depart="310.0" />    <vehicle id="S_N_319" type="standard_car" route="S_N" depart="311.0" />    <vehicle id="S_W_320" type="standard_car" route="S_W" depart="311.0" />    <vehicle id="S_N_321" type="standard_car" route="S_N" depart="311.0" />    <vehicle id="E_W_322" type="standard_car" route="E_W" depart="312.0" />    <vehicle id="N_W_323" type="standard_car" route="N_W" depart="312.0" />    <vehicle id="S_N_324" type="standard_car" route="S_N" depart="313.0" />    <vehicle id="N_S_325" type="standard_car" route="N_S" depart="313.0" />    <vehicle id="N_E_326" type="standard_car" route="N_E" depart="314.0" />    <vehicle id="W_E_327" type="standard_car" route="W_E" depart="315.0" />    <vehicle id="S_N_328" type="standard_car" route="S_N" depart="316.0" />    <vehicle id="S_W_329" type="standard_car" route="S_W" depart="316.0" />    <vehicle id="N_S_330" type="standard_car" route="N_S" depart="318.0" />    <vehicle id="N_W_331" type="standard_car" route="N_W" depart="320.0" />    <vehicle id="N_S_332" type="standard_car" route="N_S" depart="321.0" />    <vehicle id="N_S_333" type="standard_car" route="N_S" depart="322.0" />    <vehicle id="S_N_334" type="standard_car" route="S_N" depart="323.0" />    <vehicle id="N_S_335" type="standard_car" route="N_S" depart="323.0" />    <vehicle id="N_W_336" type="standard_car" route="N_W" depart="324.0" />    <vehicle id="N_S_337" type="standard_car" route="N_S" depart="324.0" />    <vehicle id="S_N_338" type="standard_car" route="S_N" depart="324.0" />    <vehicle id="N_S_339" type="standard_car" route="N_S" depart="324.0" />    <vehicle id="S_N_340" type="standard_car" route="S_N" depart="326.0" />    <vehicle id="N_W_341" type="standard_car" route="N_W" depart="326.0" />    <vehicle id="N_S_342" type="standard_car" route="N_S" depart="326.0" />    <vehicle id="S_N_343" type="standard_car" route="S_N" depart="326.0" />    <vehicle id="S_N_344" type="standard_car" route="S_N" depart="328.0" />    <vehicle id="S_N_345" type="standard_car" route="S_N" depart="328.0" />    <vehicle id="N_E_346" type="standard_car" route="N_E" depart="329.0" />    <vehicle id="S_N_347" type="standard_car" route="S_N" depart="329.0" />    <vehicle id="N_E_348" type="standard_car" route="N_E" depart="330.0" />    <vehicle id="S_W_349" type="standard_car" route="S_W" depart="330.0" />    <vehicle id="N_S_350" type="standard_car" route="N_S" depart="330.0" />    <vehicle id="N_S_351" type="standard_car" route="N_S" depart="331.0" />    <vehicle id="E_W_352" type="standard_car" route="E_W" depart="331.0" />    <vehicle id="N_S_353" type="standard_car" route="N_S" depart="331.0" />    <vehicle id="N_E_354" type="standard_car" route="N_E" depart="332.0" />    <vehicle id="N_S_355" type="standard_car" route="N_S" depart="332.0" />    <vehicle id="N_E_356" type="standard_car" route="N_E" depart="332.0" />    <vehicle id="N_S_357" type="standard_car" route="N_S" depart="333.0" />    <vehicle id="S_N_358" type="standard_car" route="S_N" depart="333.0" />    <vehicle id="S_N_359" type="standard_car" route="S_N" depart="335.0" />    <vehicle id="N_S_360" type="standard_car" route="N_S" depart="336.0" />    <vehicle id="N_W_361" type="standard_car" route="N_W" depart="336.0" />    <vehicle id="S_W_362" type="standard_car" route="S_W" depart="337.0" />    <vehicle id="S_N_363" type="standard_car" route="S_N" depart="337.0" />    <vehicle id="N_S_364" type="standard_car" route="N_S" depart="338.0" />    <vehicle id="E_S_365" type="standard_car" route="E_S" depart="339.0" />    <vehicle id="N_S_366" type="standard_car" route="N_S" depart="339.0" />    <vehicle id="E_W_367" type="standard_car" route="E_W" depart="339.0" />    <vehicle id="S_N_368" type="standard_car" route="S_N" depart="339.0" />    <vehicle id="S_N_369" type="standard_car" route="S_N" depart="340.0" />    <vehicle id="N_S_370" type="standard_car" route="N_S" depart="340.0" />    <vehicle id="N_S_371" type="standard_car" route="N_S" depart="340.0" />    <vehicle id="S_N_372" type="standard_car" route="S_N" depart="341.0" />    <vehicle id="N_S_373" type="standard_car" route="N_S" depart="341.0" />    <vehicle id="S_N_374" type="standard_car" route="S_N" depart="341.0" />    <vehicle id="N_S_375" type="standard_car" route="N_S" depart="341.0" />    <vehicle id="S_N_376" type="standard_car" route="S_N" depart="342.0" />    <vehicle id="N_S_377" type="standard_car" route="N_S" depart="342.0" />    <vehicle id="W_S_378" type="standard_car" route="W_S" depart="342.0" />    <vehicle id="N_S_379" type="standard_car" route="N_S" depart="343.0" />    <vehicle id="S_N_380" type="standard_car" route="S_N" depart="343.0" />    <vehicle id="N_S_381" type="standard_car" route="N_S" depart="343.0" />    <vehicle id="N_S_382" type="standard_car" route="N_S" depart="343.0" />    <vehicle id="S_N_383" type="standard_car" route="S_N" depart="344.0" />    <vehicle id="S_N_384" type="standard_car" route="S_N" depart="346.0" />    <vehicle id="S_N_385" type="standard_car" route="S_N" depart="348.0" />    <vehicle id="W_E_386" type="standard_car" route="W_E" depart="348.0" />    <vehicle id="S_N_387" type="standard_car" route="S_N" depart="348.0" />    <vehicle id="S_E_388" type="standard_car" route="N_E" depart="349.0" />    <vehicle id="S_W_389" type="standard_car" route="S_W" depart="350.0" />    <vehicle id="N_S_390" type="standard_car" route="N_S" depart="350.0" />    <vehicle id="N_S_391" type="standard_car" route="N_S" depart="350.0" />    <vehicle id="N_S_392" type="standard_car" route="N_S" depart="353.0" />    <vehicle id="S_N_393" type="standard_car" route="S_N" depart="353.0"