<routes>
    <vType accel="1.0" decel="4.5" id="standard_car" length="5.0" minGap="2.5" maxSpeed="25" sigma="0.5" />

    <route id="W_N" edges="W2TL TL2N"/>
    <route id="W_E" edges="W2TL TL2E"/>
    <route id="W_S" edges="W2TL TL2S"/>
    <route id="N_W" edges="N2TL TL2W"/>
    <route id="N_E" edges="N2TL TL2E"/>
    <route id="N_S" edges="N2TL TL2S"/>
    <route id="E_W" edges="E2TL TL2W"/>
    <route id="E_N" edges="E2TL TL2N"/>
    <route id="E_S" edges="E2TL TL2S"/>
    <route id="S_W" edges="S2TL TL2W"/>
    <route id="S_N" edges="S2TL TL2N"/>
    <route id="S_E" edges="S2TL TL2E"/>
    <vehicle id="N_E_0" type="standard_car" route="N_E" depart="14.0" />
    <vehicle id="N_S_1" type="standard_car" route="N_S" depart="40.0" />
    <vehicle id="N_S_2" type="standard_car" route="N_S" depart="41.0" />
    <vehicle id="N_S_3" type="standard_car" route="N_S" depart="56.0" />
    <vehicle id="N_E_4" type="standard_car" route="N_E" depart="58.0" />
    <vehicle id="N_S_5" type="standard_car" route="N_S" depart="59.0" />
    <vehicle id="S_N_6" type="standard_car" route="S_N" depart="60.0" />
    <vehicle id="N_S_7" type="standard_car" route="N_S" depart="62.0" />
    <vehicle id="S_N_8" type="standard_car" route="S_N" depart="63.0" />
    <vehicle id="N_W_9" type="standard_car" route="N_W" depart="66.0" />
    <vehicle id="S_N_10" type="standard_car" route="S_N" depart="71.0" />
    <vehicle id="S_N_11" type="standard_car" route="S_N" depart="75.0" />
    <vehicle id="S_N_12" type="standard_car" route="S_N" depart="75.0" />
    <vehicle id="S_N_13" type="standard_car" route="S_N" depart="83.0" />
    <vehicle id="N_S_14" type="standard_car" route="N_S" depart="86.0" />
    <vehicle id="S_N_15" type="standard_car" route="S_N" depart="96.0" />
    <vehicle id="N_S_16" type="standard_car" route="N_S" depart="96.0" />
    <vehicle id="S_N_17" type="standard_car" route="S_N" depart="98.0" />
    <vehicle id="N_S_18" type="standard_car" route="N_S" depart="100.0" />
    <vehicle id="S_N_19" type="standard_car" route="S_N" depart="103.0" />
    <vehicle id="E_S_20" type="standard_car" route="E_S" depart="106.0" />
    <vehicle id="S_N_21" type="standard_car" route="S_N" depart="108.0" />
    <vehicle id="W_E_22" type="standard_car" route="W_E" depart="109.0" />
    <vehicle id="S_N_23" type="standard_car" route="S_N" depart="111.0" />
    <vehicle id="E_W_24" type="standard_car" route="E_W" depart="113.0" />
    <vehicle id="S_W_25" type="standard_car" route="S_W" depart="115.0" />
    <vehicle id="N_S_26" type="standard_car" route="N_S" depart="119.0" />
    <vehicle id="N_S_27" type="standard_car" route="N_S" depart="119.0" />
    <vehicle id="W_N_28" type="standard_car" route="W_N" depart="119.0" />
    <vehicle id="S_N_29" type="standard_car" route="S_N" depart="119.0" />
    <vehicle id="E_W_30" type="standard_car" route="E_W" depart="125.0" />
    <vehicle id="N_W_31" type="standard_car" route="N_W" depart="125.0" />
    <vehicle id="N_S_32" type="standard_car" route="N_S" depart="129.0" />
    <vehicle id="N_S_33" type="standard_car" route="N_S" depart="131.0" />
    <vehicle id="N_W_34" type="standard_car" route="N_W" depart="132.0" />
    <vehicle id="S_E_35" type="standard_car" route="N_E" depart="134.0" />
    <vehicle id="N_E_36" type="standard_car" route="N_E" depart="135.0" />
    <vehicle id="N_S_37" type="standard_car" route="N_S" depart="136.0" />
    <vehicle id="W_E_38" type="standard_car" route="W_E" depart="136.0" />
    <vehicle id="S_N_39" type="standard_car" route="S_N" depart="137.0" />
    <vehicle id="S_N_40" type="standard_car" route="S_N" depart="138.0" />
    <vehicle id="N_S_41" type="standard_car" route="N_S" depart="139.0" />
    <vehicle id="N_S_42" type="standard_car" route="N_S" depart="145.0" />
    <vehicle id="N_E_43" type="standard_car" route="N_E" depart="145.0" />
    <vehicle id="N_S_44" type="standard_car" route="N_S" depart="147.0" />
    <vehicle id="N_S_45" type="standard_car" route="N_S" depart="149.0" />
    <vehicle id="N_S_46" type="standard_car" route="N_S" depart="153.0" />
    <vehicle id="N_S_47" type="standard_car" route="N_S" depart="153.0" />
    <vehicle id="S_E_48" type="standard_car" route="N_E" depart="155.0" />
    <vehicle id="N_S_49" type="standard_car" route="N_S" depart="157.0" />
    <vehicle id="N_S_50" type="standard_car" route="N_S" depart="157.0" />
    <vehicle id="N_S_51" type="standard_car" route="N_S" depart="158.0" />
    <vehicle id="W_E_52" type="standard_car" route="W_E" depart="159.0" />
    <vehicle id="N_W_53" type="standard_car" route="N_W" depart="159.0" />
    <vehicle id="N_S_54" type="standard_car" route="N_S" depart="165.0" />
    <vehicle id="N_W_55" type="standard_car" route="N_W" depart="165.0" />
    <vehicle id="N_W_56" type="standard_car" route="N_W" depart="166.0" />
    <vehicle id="E_W_57" type="standard_car" route="E_W" depart="168.0" />
    <vehicle id="S_W_58" type="standard_car" route="S_W" depart="170.0" />
    <vehicle id="S_N_59" type="standard_car" route="S_N" depart="173.0" />
    <vehicle id="S_N_60" type="standard_car" route="S_N" depart="174.0" />
    <vehicle id="N_W_61" type="standard_car" route="N_W" depart="174.0" />
    <vehicle id="N_S_62" type="standard_car" route="N_S" depart="176.0" />
    <vehicle id="S_W_63" type="standard_car" route="S_W" depart="178.0" />
    <vehicle id="N_S_64" type="standard_car" route="N_S" depart="179.0" />
    <vehicle id="W_S_65" type="standard_car" route="W_S" depart="180.0" />
    <vehicle id="S_N_66" type="standard_car" route="S_N" depart="181.0" />
    <vehicle id="N_E_67" type="standard_car" route="N_E" depart="183.0" />
    <vehicle id="N_E_68" type="standard_car" route="N_E" depart="183.0" />
    <vehicle id="N_W_69" type="standard_car" route="N_W" depart="184.0" />
    <vehicle id="N_S_70" type="standard_car" route="N_S" depart="186.0" />
    <vehicle id="N_S_71" type="standard_car" route="N_S" depart="187.0" />
    <vehicle id="N_W_72" type="standard_car" route="N_W" depart="187.0" />
    <vehicle id="N_W_73" type="standard_car" route="N_W" depart="188.0" />
    <vehicle id="N_S_74" type="standard_car" route="N_S" depart="190.0" />
    <vehicle id="N_E_75" type="standard_car" route="N_E" depart="190.0" />
    <vehicle id="N_S_76" type="standard_car" route="N_S" depart="190.0" />
    <vehicle id="S_N_77" type="standard_car" route="S_N" depart="190.0" />
    <vehicle id="S_N_78" type="standard_car" route="S_N" depart="192.0" />
    <vehicle id="N_W_79" type="standard_car" route="N_W" depart="194.0" />
    <vehicle id="S_N_80" type="standard_car" route="S_N" depart="194.0" />
    <vehicle id="S_N_81" type="standard_car" route="S_N" depart="194.0" />
    <vehicle id="N_S_82" type="standard_car" route="N_S" depart="195.0" />
    <vehicle id="N_E_83" type="standard_car" route="N_E" depart="197.0" />
    <vehicle id="N_S_84" type="standard_car" route="N_S" depart="198.0" />
    <vehicle id="N_S_85" type="standard_car" route="N_S" depart="198.0" />
    <vehicle id="S_N_86" type="standard_car" route="S_N" depart="200.0" />
    <vehicle id="S_N_87" type="standard_car" route="S_N" depart="200.0" />
    <vehicle id="S_N_88" type="standard_car" route="S_N" depart="203.0" />
    <vehicle id="S_N_89" type="standard_car" route="S_N" depart="205.0" />
    <vehicle id="S_N_90" type="standard_car" route="S_N" depart="206.0" />
    <vehicle id="E_W_91" type="standard_car" route="E_W" depart="209.0" />
    <vehicle id="N_S_92" type="standard_car" route="N_S" depart="210.0" />
    <vehicle id="N_W_93" type="standard_car" route="N_W" depart="212.0" />
    <vehicle id="S_W_94" type="standard_car" route="S_W" depart="213.0" />
    <vehicle id="N_S_95" type="standard_car" route="N_S" depart="214.0" />
    <vehicle id="N_S_96" type="standard_car" route="N_S" depart="214.0" />
    <vehicle id="S_N_97" type="standard_car" route="S_N" depart="214.0" />
    <vehicle id="N_S_98" type="standard_car" route="N_S" depart="215.0" />
    <vehicle id="S_N_99" type="standard_car" route="S_N" depart="217.0" />
    <vehicle id="N_S_100" type="standard_car" route="N_S" depart="218.0" />
    <vehicle id="S_N_101" type="standard_car" route="S_N" depart="218.0" />
    <vehicle id="N_S_102" type="standard_car" route="N_S" depart="221.0" />
    <vehicle id="N_W_103" type="standard_car" route="N_W" depart="222.0" />
    <vehicle id="S_N_104" type="standard_car" route="S_N" depart="222.0" />
    <vehicle id="S_N_105" type="standard_car" route="S_N" depart="227.0" />
    <vehicle id="N_S_106" type="standard_car" route="N_S" depart="228.0" />
    <vehicle id="S_E_107" type="standard_car" route="N_E" depart="229.0" />
    <vehicle id="N_S_108" type="standard_car" route="N_S" depart="230.0" />
    <vehicle id="S_N_109" type="standard_car" route="S_N" depart="231.0" />
    <vehicle id="N_S_110" type="standard_car" route="N_S" depart="232.0" />
    <vehicle id="E_W_111" type="standard_car" route="E_W" depart="233.0" />
    <vehicle id="E_W_112" type="standard_car" route="E_W" depart="236.0" />
    <vehicle id="S_N_113" type="standard_car" route="S_N" depart="236.0" />
    <vehicle id="S_N_114" type="standard_car" route="S_N" depart="236.0" />
    <vehicle id="S_N_115" type="standard_car" route="S_N" depart="239.0" />
    <vehicle id="S_N_116" type="standard_car" route="S_N" depart="239.0" />
    <vehicle id="S_W_117" type="standard_car" route="S_W" depart="242.0" />
    <vehicle id="N_E_118" type="standard_car" route="N_E" depart="243.0" />
    <vehicle id="N_S_119" type="standard_car" route="N_S" depart="244.0" />
    <vehicle id="N_S_120" type="standard_car" route="N_S" depart="245.0" />
    <vehicle id="W_E_121" type="standard_car" route="W_E" depart="245.0" />
    <vehicle id="S_W_122" type="standard_car" route="S_W" depart="246.0" />
    <vehicle id="S_E_123" type="standard_car" route="N_E" depart="246.0" />
    <vehicle id="W_E_124" type="standard_car" route="W_E" depart="246.0" />
    <vehicle id="S_N_125" type="standard_car" route="S_N" depart="247.0" />
    <vehicle id="S_N_126" type="standard_car" route="S_N" depart="247.0" />
    <vehicle id="N_S_127" type="standard_car" route="N_S" depart="247.0" />
    <vehicle id="S_N_128" type="standard_car" route="S_N" depart="248.0" />
    <vehicle id="S_W_129" type="standard_car" route="S_W" depart="248.0" />
    <vehicle id="E_W_130" type="standard_car" route="E_W" depart="248.0" />
    <vehicle id="N_S_131" type="standard_car" route="N_S" depart="248.0" />
    <vehicle id="N_S_132" type="standard_car" route="N_S" depart="249.0" />
    <vehicle id="N_W_133" type="standard_car" route="N_W" depart="249.0" />
    <vehicle id="N_S_134" type="standard_car" route="N_S" depart="251.0" />
    <vehicle id="N_S_135" type="standard_car" route="N_S" depart="253.0" />
    <vehicle id="S_E_136" type="standard_car" route="N_E" depart="254.0" />
    <vehicle id="S_N_137" type="standard_car" route="S_N" depart="255.0" />
    <vehicle id="N_S_138" type="standard_car" route="N_S" depart="255.0" />
    <vehicle id="N_S_139" type="standard_car" route="N_S" depart="255.0" />
    <vehicle id="E_W_140" type="standard_car" route="E_W" depart="255.0" />
    <vehicle id="N_S_141" type="standard_car" route="N_S" depart="256.0" />
    <vehicle id="S_W_142" type="standard_car" route="S_W" depart="258.0" />
    <vehicle id="N_S_143" type="standard_car" route="N_S" depart="260.0" />
    <vehicle id="S_N_144" type="standard_car" route="S_N" depart="260.0" />
    <vehicle id="S_W_145" type="standard_car" route="S_W" depart="261.0" />
    <vehicle id="N_S_146" type="standard_car" route="N_S" depart="263.0" />
    <vehicle id="W_E_147" type="standard_car" route="W_E" depart="264.0" />
    <vehicle id="S_N_148" type="standard_car" route="S_N" depart="267.0" />
    <vehicle id="S_N_149" type="standard_car" route="S_N" depart="267.0" />
    <vehicle id="W_E_150" type="standard_car" route="W_E" depart="268.0" />
    <vehicle id="N_S_151" type="standard_car" route="N_S" depart="268.0" />
    <vehicle id="S_N_152" type="standard_car" route="S_N" depart="270.0" />
    <vehicle id="N_S_153" type="standard_car" route="N_S" depart="270.0" />
    <vehicle id="N_S_154" type="standard_car" route="N_S" depart="271.0" />
    <vehicle id="S_W_155" type="standard_car" route="S_W" depart="271.0" />
    <vehicle id="S_N_156" type="standard_car" route="S_N" depart="272.0" />
    <vehicle id="N_S_157" type="standard_car" route="N_S" depart="272.0" />
    <vehicle id="S_N_158" type="standard_car" route="S_N" depart="272.0" />
    <vehicle id="S_W_159" type="standard_car" route="S_W" depart="273.0" />
    <vehicle id="S_N_160" type="standard_car" route="S_N" depart="274.0" />
    <vehicle id="E_W_161" type="standard_car" route="E_W" depart="277.0" />
    <vehicle id="N_W_162" type="standard_car" route="N_W" depart="277.0" />
    <vehicle id="N_W_163" type="standard_car" route="N_W" depart="277.0" />
    <vehicle id="N_W_164" type="standard_car" route="N_W" depart="279.0" />
    <vehicle id="S_N_165" type="standard_car" route="S_N" depart="280.0" />
    <vehicle id="N_S_166" type="standard_car" route="N_S" depart="280.0" />
    <vehicle id="N_S_167" type="standard_car" route="N_S" depart="281.0" />
    <vehicle id="S_N_168" type="standard_car" route="S_N" depart="282.0" />
    <vehicle id="N_S_169" type="standard_car" route="N_S" depart="283.0" />
    <vehicle id="W_E_170" type="standard_car" route="W_E" depart="283.0" />
    <vehicle id="S_N_171" type="standard_car" route="S_N" depart="284.0" />
    <vehicle id="N_S_172" type="standard_car" route="N_S" depart="288.0" />
    <vehicle id="N_S_173" type="standard_car" route="N_S" depart="289.0" />
    <vehicle id="N_S_174" type="standard_car" route="N_S" depart="289.0" />
    <vehicle id="W_E_175" type="standard_car" route="W_E" depart="291.0" />
    <vehicle id="N_S_176" type="standard_car" route="N_S" depart="292.0" />
    <vehicle id="N_S_177" type="standard_car" route="N_S" depart="292.0" />
    <vehicle id="N_S_178" type="standard_car" route="N_S" depart="294.0" />
    <vehicle id="S_N_179" type="standard_car" route="S_N" depart="294.0" />
    <vehicle id="S_N_180" type="standard_car" route="S_N" depart="297.0" />
    <vehicle id="N_W_181" type="standard_car" route="N_W" depart="299.0" />
    <vehicle id="S_N_182" type="standard_car" route="S_N" depart="299.0" />
    <vehicle id="S_N_183" type="standard_car" route="S_N" depart="301.0" />
    <vehicle id="N_S_184" type="standard_car" route="N_S" depart="303.0" />
    <vehicle id="S_W_185" type="standard_car" route="S_W" depart="304.0" />
    <vehicle id="E_W_186" type="standard_car" route="E_W" depart="308.0" />
    <vehicle id="N_W_187" type="standard_car" route="N_W" depart="309.0" />
    <vehicle id="S_N_188" type="standard_car" route="S_N" depart="309.0" />
    <vehicle id="N_S_189" type="standard_car" route="N_S" depart="309.0" />
    <vehicle id="N_S_190" type="standard_car" route="N_S" depart="310.0" />
    <vehicle id="N_S_191" type="standard_car" route="N_S" depart="311.0" />
    <vehicle id="S_N_192" type="standard_car" route="S_N" depart="312.0" />
    <vehicle id="W_E_193" type="standard_car" route="W_E" depart="312.0" />
    <vehicle id="N_S_194" type="standard_car" route="N_S" depart="312.0" />
    <vehicle id="N_W_195" type="standard_car" route="N_W" depart="312.0" />
    <vehicle id="S_N_196" type="standard_car" route="S_N" depart="313.0" />
    <vehicle id="S_N_197" type="standard_car" route="S_N" depart="314.0" />
    <vehicle id="N_S_198" type="standard_car" route="N_S" depart="315.0" />
    <vehicle id="N_S_199" type="standard_car" route="N_S" depart="315.0" />
    <vehicle id="S_N_200" type="standard_car" route="S_N" depart="315.0" />
    <vehicle id="S_N_201" type="standard_car" route="S_N" depart="315.0" />
    <vehicle id="N_S_202" type="standard_car" route="N_S" depart="315.0" />
    <vehicle id="N_S_203" type="standard_car" route="N_S" depart="315.0" />
    <vehicle id="N_S_204" type="standard_car" route="N_S" depart="316.0" />
    <vehicle id="S_N_205" type="standard_car" route="S_N" depart="317.0" />
    <vehicle id="W_E_206" type="standard_car" route="W_E" depart="318.0" />
    <vehicle id="S_E_207" type="standard_car" route="N_E" depart="318.0" />
    <vehicle id="W_E_208" type="standard_car" route="W_E" depart="319.0" />
    <vehicle id="S_N_209" type="standard_car" route="S_N" depart="319.0" />
    <vehicle id="N_S_210" type="standard_car" route="N_S" depart="319.0" />
    <vehicle id="S_N_211" type="standard_car" route="S_N" depart="320.0" />
    <vehicle id="N_S_212" type="standard_car" route="N_S" depart="321.0" />
    <vehicle id="N_S_213" type="standard_car" route="N_S" depart="322.0" />
    <vehicle id="N_S_214" type="standard_car" route="N_S" depart="322.0" />
    <vehicle id="S_N_215" type="standard_car" route="S_N" depart="323.0" />
    <vehicle id="S_W_216" type="standard_car" route="S_W" depart="324.0" />
    <vehicle id="S_N_217" type="standard_car" route="S_N" depart="325.0" />
    <vehicle id="E_N_218" type="standard_car" route="E_N" depart="326.0" />
    <vehicle id="S_E_219" type="standard_car" route="N_E" depart="330.0" />
    <vehicle id="N_S_220" type="standard_car" route="N_S" depart="330.0" />
    <vehicle id="W_E_221" type="standard_car" route="W_E" depart="330.0" />
    <vehicle id="S_N_222" type="standard_car" route="S_N" depart="331.0" />
    <vehicle id="N_S_223" type="standard_car" route="N_S" depart="331.0" />
    <vehicle id="S_N_224" type="standard_car" route="S_N" depart="331.0" />
    <vehicle id="S_E_225" type="standard_car" route="N_E" depart="331.0" />
    <vehicle id="N_S_226" type="standard_car" route="N_S" depart="332.0" />
    <vehicle id="N_S_227" type="standard_car" route="N_S" depart="332.0" />
    <vehicle id="N_S_228" type="standard_car" route="N_S" depart="333.0" />
    <vehicle id="S_W_229" type="standard_car" route="S_W" depart="334.0" />
    <vehicle id="S_N_230" type="standard_car" route="S_N" depart="334.0" />
    <vehicle id="S_N_231" type="standard_car" route="S_N" depart="335.0" />
    <vehicle id="N_S_232" type="standard_car" route="N_S" depart="335.0" />
    <vehicle id="S_N_233" type="standard_car" route="S_N" depart="335.0" />
    <vehicle id="S_E_234" type="standard_car" route="N_E" depart="335.0" />
    <vehicle id="N_S_235" type="standard_car" route="N_S" depart="337.0" />
    <vehicle id="W_E_236" type="standard_car" route="W_E" depart="337.0" />
    <vehicle id="N_W_237" type="standard_car" route="N_W" depart="338.0" />
    <vehicle id="S_E_238" type="standard_car" route="N_E" depart="339.0" />
    <vehicle id="E_N_239" type="standard_car" route="E_N" depart="339.0" />
    <vehicle id="W_E_240" type="standard_car" route="W_E" depart="339.0" />
    <vehicle id="S_N_241" type="standard_car" route="S_N" depart="341.0" />
    <vehicle id="N_S_242" type="standard_car" route="N_S" depart="341.0" />
    <vehicle id="S_N_243" type="standard_car" route="S_N" depart="342.0" />
    <vehicle id="N_W_244" type="standard_car" route="N_W" depart="342.0" />
    <vehicle id="S_E_245" type="standard_car" route="N_E" depart="343.0" />
    <vehicle id="S_E_246" type="standard_car" route="N_E" depart="344.0" />
    <vehicle id="N_S_247" type="standard_car" route="N_S" depart="344.0" />
    <vehicle id="N_S_248" type="standard_car" route="N_S" depart="345.0" />
    <vehicle id="S_N_249" type="standard_car" route="S_N" depart="346.0" />
    <vehicle id="N_S_250" type="standard_car" route="N_S" depart="348.0" />
    <vehicle id="E_W_251" type="standard_car" route="E_W" depart="349.0" />
    <vehicle id="S_N_252" type="standard_car" route="S_N" depart="350.0" />
    <vehicle id="S_N_253" type="standard_car" route="S_N" depart="350.0" />
    <vehicle id="N_E_254" type="standard_car" route="N_E" depart="350.0" />
    <vehicle id="N_S_255" type="standard_car" route="N_S" depart="350.0" />
    <vehicle id="S_N_256" type="standard_car" route="S_N" depart="351.0" />
    <vehicle id="N_S_257" type="standard_car" route="N_S" depart="351.0" />
    <vehicle id="S_N_258" type="standard_car" route="S_N" depart="352.0" />
    <vehicle id="N_S_259" type="standard_car" route="N_S" depart="352.0" />
    <vehicle id="S_N_260" type="standard_car" route="S_N" depart="354.0" />
    <vehicle id="S_N_261" type="standard_car" route="S_N" depart="355.0" />
    <vehicle id="N_S_262" type="standard_car" route="N_S" depart="356.0" />
    <vehicle id="W_E_263" type="standard_car" route="W_E" depart="356.0" />
    <vehicle id="N_S_264" type="standard_car" route="N_S" depart="357.0" />
    <vehicle id="S_E_265" type="standard_car" route="N_E" depart="358.0" />
    <vehicle id="S_N_266" type="standard_car" route="S_N" depart="359.0" />
    <vehicle id="S_W_267" type="standard_car" route="S_W" depart="360.0" />
    <vehicle id="N_S_268" type="standard_car" route="N_S" depart="360.0" />
    <vehicle id="S_N_269" type="standard_car" route="S_N" depart="361.0" />
    <vehicle id="S_N_270" type="standard_car" route="S_N" depart="361.0" />
    <vehicle id="N_S_271" type="standard_car" route="N_S" depart="362.0" />
    <vehicle id="E_W_272" type="standard_car" route="E_W" depart="362.0" />
    <vehicle id="S_W_273" type="standard_car" route="S_W" depart="363.0" />
    <vehicle id="S_E_274" type="standard_car" route="N_E" depart="365.0" />
    <vehicle id="S_N_275" type="standard_car" route="S_N" depart="365.0" />
    <vehicle id="S_W_276" type="standard_car" route="S_W" depart="367.0" />
    <vehicle id="S_N_277" type="standard_car" route="S_N" depart="367.0" />
    <vehicle id="S_N_278" type="standard_car" route="S_N" depart="367.0" />
    <vehicle id="S_W_279" type="standard_car" route="S_W" depart="367.0" />
    <vehicle id="N_S_280" type="standard_car" route="N_S" depart="367.0" />
    <vehicle id="N_W_281" type="standard_car" route="N_W" depart="368.0" />
    <vehicle id="N_S_282" type="standard_car" route="N_S" depart="369.0" />
    <vehicle id="E_S_283" type="standard_car" route="E_S" depart="370.0" />
    <vehicle id="N_S_284" type="standard_car" route="N_S" depart="370.0" />
    <vehicle id="N_S_285" type="standard_car" route="N_S" depart="371.0" />
    <vehicle id="N_S_286" type="standard_car" route="N_S" depart="372.0" />
    <vehicle id="S_N_287" type="standard_car" route="S_N" depart="372.0" />
    <vehicle id="N_S_288" type="standard_car" route="N_S" depart="372.0" />
    <vehicle id="N_S_289" type="standard_car" route="N_S" depart="373.0" />
    <vehicle id="N_S_290" type="standard_car" route="N_S" depart="374.0" />
    <vehicle id="N_W_291" type="standard_car" route="N_W" depart="375.0" />
    <vehicle id="N_S_292" type="standard_car" route="N_S" depart="376.0" />
    <vehicle id="S_N_293" type="standard_car" route="S_N" depart="376.0" />
    <vehicle id="S_N_294" type="standard_car" route="S_N" depart="377.0" />
    <vehicle id="S_N_295" type="standard_car" route="S_N" depart="378.0" />
    <vehicle id="S_N_296" type="standard_car" route="S_N" depart="378.0" />
    <vehicle id="S_W_297" type="standard_car" route="S_W" depart="379.0" />
    <vehicle id="S_N_298" type="standard_car" route="S_N" depart="381.0" />
    <vehicle id="S_N_299" type="standard_car" route="S_N" depart="381.0" />
    <vehicle id="N_S_300" type="standard_car" route="N_S" depart="382.0" />
    <vehicle id="W_E_301" type="standard_car" route="W_E" depart="382.0" />
    <vehicle id="S_N_302" type="standard_car" route="S_N" depart="383.0" />
    <vehicle id="S_N_303" type="standard_car" route="S_N" depart="383.0" />
    <vehicle id="N_S_304" type="standard_car" route="N_S" depart="384.0" />
    <vehicle id="N_S_305" type="standard_car" route="N_S" depart="384.0" />
    <vehicle id="S_N_306" type="standard_car" route="S_N" depart="385.0" />
    <vehicle id="N_S_307" type="standard_car" route="N_S" depart="386.0" />
    <vehicle id="W_E_308" type="standard_car" route="W_E" depart="388.0" />
    <vehicle id="N_S_309" type="standard_car" route="N_S" depart="388.0" />
    <vehicle id="E_W_310" type="standard_car" route="E_W" depart="388.0" />
    <vehicle id="N_S_311" type="standard_car" route="N_S" depart="388.0" />
    <vehicle id="S_N_312" type="standard_car" route="S_N" depart="388.0" />
    <vehicle id="S_N_313" type="standard_car" route="S_N" depart="388.0" />
    <vehicle id="S_N_314" type="standard_car" route="S_N" depart="388.0" />
    <vehicle id="N_S_315" type="standard_car" route="N_S" depart="389.0" />
    <vehicle id="S_E_316" type="standard_car" route="N_E" depart="389.0" />
    <vehicle id="S_N_317" type="standard_car" route="S_N" depart="390.0" />
    <vehicle id="N_S_318" type="standard_car" route="N_S" depart="391.0" />
    <vehicle id="S_N_319" type="standard_car" route="S_N" depart="391.0" />
    <vehicle id="S_N_320" type="standard_car" route="S_N" depart="392.0" />
    <vehicle id="S_N_321" type="standard_car" route="S_N" depart="392.0" />
    <vehicle id="S_N_322" type="standard_car" route="S_N" depart="394.0" />
    <vehicle id="N_S_323" type="standard_car" route="N_S" depart="396.0" />
    <vehicle id="S_W_324" type="standard_car" route="S_W" depart="397.0" />
    <vehicle id="E_N_325" type="standard_car" route="E_N" depart="397.0" />
    <vehicle id="N_S_326" type="standard_car" route="N_S" depart="397.0" />
    <vehicle id="S_N_327" type="standard_car" route="S_N" depart="397.0" />
    <vehicle id="N_S_328" type="standard_car" route="N_S" depart="397.0" />
    <vehicle id="N_S_329" type="standard_car" route="N_S" depart="398.0" />
    <vehicle id="S_E_330" type="standard_car" route="N_E" depart="399.0" />
    <vehicle id="N_S_331" type="standard_car" route="N_S" depart="400.0" />
    <vehicle id="N_S_332" type="standard_car" route="N_S" depart="400.0" />
    <vehicle id="N_S_333" type="standard_car" route="N_S" depart="401.0" />
    <vehicle id="S_N_334" type="standard_car" route="S_N" depart="402.0" />
    <vehicle id="S_N_335" type="standard_car" route="S_N" depart="402.0" />
    <vehicle id="N_S_336" type="standard_car" route="N_S" depart="403.0" />
    <vehicle id="N_S_337" type="standard_car" route="N_S" depart="405.0" />
    <vehicle id="S_N_338" type="standard_car" route="S_N" depart="407.0" />
    <vehicle id="N_W_339" type="standard_car" route="N_W" depart="407.0" />
    <vehicle id="N_S_340" type="standard_car" route="N_S" depart="408.0" />
    <vehicle id="S_N_341" type="standard_car" route="S_N" depart="408.0" />
    <vehicle id="N_S_342" type="standard_car" route="N_S" depart="408.0" />
    <vehicle id="S_N_343" type="standard_car" route="S_N" depart="410.0" />
    <vehicle id="N_S_344" type="standard_car" route="N_S" depart="411.0" />
    <vehicle id="E_N_345" type="standard_car" route="E_N" depart="412.0" />
    <vehicle id="S_N_346" type="standard_car" route="S_N" depart="415.0" />
    <vehicle id="N_S_347" type="standard_car" route="N_S" depart="416.0" />
    <vehicle id="N_E_348" type="standard_car" route="N_E" depart="417.0" />
    <vehicle id="S_N_349" type="standard_car" route="S_N" depart="418.0" />
    <vehicle id="S_N_350" type="standard_car" route="S_N" depart="418.0" />
    <vehicle id="N_S_351" type="standard_car" route="N_S" depart="420.0" />
    <vehicle id="N_S_352" type="standard_car" route="N_S" depart="421.0" />
    <vehicle id="S_N_353" type="standard_car" route="S_N" depart="421.0" />
    <vehicle id="N_S_354" type="standard_car" route="N_S" depart="422.0" />
    <vehicle id="N_E_355" type="standard_car" route="N_E" depart="423.0" />
    <vehicle id="E_W_356" type="standard_car" route="E_W" depart="424.0" />
    <vehicle id="S_E_357" type="standard_car" route="N_E" depart="425.0" />
    <vehicle id="N_S_358" type="standard_car" route="N_S" depart="425.0" />
    <vehicle id="W_E_359" type="standard_car" route="W_E" depart="425.0" />
    <vehicle id="N_W_360" type="standard_car" route="N_W" depart="427.0" />
    <vehicle id="N_S_361" type="standard_car" route="N_S" depart="428.0" />
    <vehicle id="N_S_362" type="standard_car" route="N_S" depart="428.0" />
    <vehicle id="N_S_363" type="standard_car" route="N_S" depart="429.0" />
    <vehicle id="E_W_364" type="standard_car" route="E_W" depart="431.0" />
    <vehicle id="S_W_365" type="standard_car" route="S_W" depart="432.0" />
    <vehicle id="S_W_366" type="standard_car" route="S_W" depart="433.0" />
    <vehicle id="S_N_367" type="standard_car" route="S_N" depart="433.0" />
    <vehicle id="W_E_368" type="standard_car" route="W_E" depart="433.0" />
    <vehicle id="S_N_369" type="standard_car" route="S_N" depart="434.0" />
    <vehicle id="S_N_370" type="standard_car" route="S_N" depart="434.0" />
    <vehicle id="S_N_371" type="standard_car" route="S_N" depart="435.0" />
    <vehicle id="S_N_372" type="standard_car" route="S_N" depart="435.0" />
    <vehicle id="N_S_373" type="standard_car" route="N_S" depart="436.0" />
    <vehicle id="N_S_374" type="standard_car" route="N_S" depart="437.0" />
    <vehicle id="E_W_375" type="standard_car" route="E_W" depart="438.0" />
    <vehicle id="N_E_376" type="standard_car" route="N_E" depart="439.0" />
    <vehicle id="N_W_377" type="standard_car" route="N_W" depart="440.0" />
    <vehicle id="N_S_378" type="standard_car" route="N_S" depart="441.0" />
    <vehicle id="S_N_379" type="standard_car" route="S_N" depart="441.0" />
    <vehicle id="N_S_380" type="standard_car" route="N_S" depart="441.0" />
    <vehicle id="S_N_381" type="standard_car" route="S_N" depart="442.0" />
    <vehicle id="S_E_382" type="standard_car" route="N_E" depart="443.0" />
    <vehicle id="N_S_383" type="standard_car" route="N_S" depart="443.0" />
    <vehicle id="E_W_384" type="standard_car" route="E_W" depart="443.0" />
    <vehicle id="S_N_385" type="standard_car" route="S_N" depart="443.0" />
    <vehicle id="N_S_386" type="standard_car" route="N_S" depart="443.0" />
    <vehicle id="N_S_387" type="standard_car" route="N_S" depart="444.0" />